19
CONF1
C -2.5998934681 1.4105828587 -0.0000516404
C -1.6162970122 0.2890863862 -0.0000368002
C -1.8858094398 -1.0547958694 -0.0000342412
N -0.7025469941 -1.7735058996 0.0000742056
C 0.3578648904 -0.8977440325 -0.0000082745
C -0.1861633777 0.4145932039 -0.0000162165
C 0.6876878367 1.5093342998 0.0000340287
C 2.0544008911 1.2776115493 0.0000448481
C 2.5694284519 -0.0306547188 0.0000101792
C 1.7304560530 -1.1358569748 -0.0000070679
H -2.4756298478 2.0490960602 0.8823028575
H -2.4756481310 2.0490350321 -0.8824539699
H -3.6266492794 1.0353508755 -0.0000281921
H -2.8394037369 -1.5642539068 -0.0000243592
H -0.6318182330 -2.7749376650 -0.0004303587
H 0.2988843794 2.5233652486 0.0000623933
H 2.7425686931 2.1166256218 0.0000823913
H 3.6443869608 -0.1789827123 0.0000104228
H 2.1312508030 -2.1448611556 -0.0000109029
19
CONF2
C -2.6156123771 1.4044538587 0.0007400693
C -1.6179023023 0.2889472294 -0.0010746032
C -1.8841297830 -1.0572630720 -0.0013641537
N -0.7000957848 -1.7719930223 -0.0001466852
C 0.3584062568 -0.8959488375 0.0004597755
C -0.1878761772 0.4167187155 0.0002307416
C 0.6907548516 1.5091905417 0.0004168930
C 2.0564067612 1.2754141676 0.0002846385
C 2.5716696701 -0.0332067565 0.0003166402
C 1.7310164771 -1.1362090004 0.0004367634
H -3.2866974339 1.3517019661 -0.8630354090
H -3.2358774960 1.3951852086 0.9035281620
H -2.1106561064 2.3726936666 -0.0374503586
H -2.8357977357 -1.5706582936 -0.0025630896
H -0.6271893880 -2.7733879113 -0.0007111734
H 0.3083900600 2.5254406628 0.0006570122
H 2.7449754245 2.1141690561 0.0001565975
H 3.6464860373 -0.1824656502 0.0001684476
H 2.1288988689 -2.1465293242 0.0003872137
