11
 xtb: 6.7.1 (41059b4)
C           -2.53031565961156        0.07660150507409        0.00013432006859
C           -1.11776679099428       -0.51151733039003       -0.00023313661489
C           -0.08228737918362        0.59588263000820       -0.00021090378082
Cl           1.61453601405500       -0.07673201269814       -0.00023649803666
H           -3.27973495002177       -0.71926475964953       -0.00000889442735
H           -2.70200541686780        0.69726157687092        0.88561518059560
H           -2.70225762574165        0.69781448902147       -0.88491127155927
H           -0.96972615806586       -1.14546984765294        0.88023690183364
H           -0.97003380674197       -1.14515092972662       -0.88098454303238
H           -0.16370778219025        1.22451777088887        0.89020062187612
H           -0.16370861188909        1.22456267096730       -0.89059086766076
