8
CONF2
C 1.3840188105 0.5335561515 0.0005346824
O 0.5979610832 -0.6817856851 0.0014856633
C -0.7323382021 -0.4909534127 -0.0005829684
O -1.2908093522 0.5749782644 -0.0030991824
H 1.1568625684 1.1306310431 0.8872178197
H 1.1675469381 1.1220517241 -0.8945602773
H 2.4232491081 0.2073637460 0.0081742827
H -1.2335236780 -1.4722987804 0.0006211298
8
CONF1
C 1.4127215777 0.5311070327 0.0008037762
O 0.5917820700 -0.6610405428 0.0031180101
C -0.7428810534 -0.4873813068 0.0001085613
O -1.3348858650 0.5598505292 -0.0051391050
H 0.7890598910 1.4260744902 0.0228255870
H 2.0223393884 0.5096902139 -0.9050505759
H 2.0549999682 0.4866628917 0.8826905983
H -1.2193780919 -1.4810089006 0.0003863399
8
CONF3
C 1.7630768841 0.1885232013 -0.0000283043
O 0.4772031164 -0.4538585474 0.0000350235
C -0.6196911560 0.3352273690 0.0000114277
O -1.7302675217 -0.1093590430 0.0002135959
H 2.3041764488 -0.1271070722 -0.8951602211
H 2.3055391228 -0.1304388039 0.8930696636
H 1.6633933528 1.2801665184 0.0021179742
H -0.3763382916 1.4180009410 -0.0002647998
