11
 xtb: 6.7.1 (41059b4)
C           -1.26873784529678        0.26837823532391        0.00000454440836
C           -0.00000341006843       -0.58225903693451        0.00002657597467
C            1.26874443239398        0.26835868741227       -0.00002971932882
H           -1.30481067067755        0.91508007237995        0.88358313965313
H           -1.30497032447163        0.91481145235395       -0.88376349823381
H           -2.17115869895822       -0.35064913542600        0.00018056214817
H            0.00000429719297       -1.24056675659899        0.87743893991086
H           -0.00002176783601       -1.24064877262814       -0.87732496067830
H            1.30492133627139        0.91485529437372       -0.88375374176452
H            2.17115567058939       -0.35068267212582        0.00003427468914
H            1.30489419725199        0.91499645133874        0.88359253410055
