 xtb: 6.7.1 (41059b4)
          04082522383D

 14 13  0     0  0            999 V2000
   -2.4745    0.0742    0.3716 C   0  0  0  0  0  0  0  0  0  0  0  0
   -1.2286    0.7027   -0.2357 C   0  0  0  0  0  0  0  0  0  0  0  0
    0.0312    0.0021    0.2188 C   0  0  0  0  0  0  0  0  0  0  0  0
    0.0851   -0.9531    0.9447 O   0  0  0  0  0  0  0  0  0  0  0  0
    1.1165    0.5945   -0.3045 O   0  0  0  0  0  0  0  0  0  0  0  0
    2.3704    0.0255    0.0465 C   0  0  0  0  0  0  0  0  0  0  0  0
   -2.4313    0.1251    1.4562 H   0  0  0  0  0  0  0  0  0  0  0  0
   -3.3657    0.5934    0.0290 H   0  0  0  0  0  0  0  0  0  0  0  0
   -2.5443   -0.9724    0.0875 H   0  0  0  0  0  0  0  0  0  0  0  0
   -1.1445    1.7553    0.0421 H   0  0  0  0  0  0  0  0  0  0  0  0
   -1.2596    0.6562   -1.3264 H   0  0  0  0  0  0  0  0  0  0  0  0
    3.1271    0.6270   -0.4502 H   0  0  0  0  0  0  0  0  0  0  0  0
    2.4232   -1.0122   -0.2891 H   0  0  0  0  0  0  0  0  0  0  0  0
    2.5085    0.0511    1.1293 H   0  0  0  0  0  0  0  0  0  0  0  0
  1  2  1  0  0  0  0
  2  3  1  0  0  0  0
  3  4  2  0  0  0  0
  3  5  1  0  0  0  0
  5  6  1  0  0  0  0
  1  7  1  0  0  0  0
  1  8  1  0  0  0  0
  1  9  1  0  0  0  0
  2 10  1  0  0  0  0
  2 11  1  0  0  0  0
  6 12  1  0  0  0  0
  6 13  1  0  0  0  0
  6 14  1  0  0  0  0
M  END
