14
 xtb: 6.7.1 (41059b4)
C            1.95080961717701       -0.13163546372650        0.00002688740602
C            0.56649728183935        0.51308951626929       -0.00000433797654
C           -0.56649617776358       -0.51308925874833       -0.00002489393568
C           -1.95080812968218        0.13163658797373        0.00002003351763
H            2.74560301770185        0.62039643272971        0.00019900272846
H            2.08784490826522       -0.76400662472934        0.88386970345981
H            2.08800482284639       -0.76377319389081       -0.88395715407649
H            0.46166344696416        1.16418437732033        0.87795704445396
H            0.46170318376755        1.16418496227738       -0.87797060728145
H           -0.46169645770865       -1.16415925577868       -0.87800910600280
H           -0.46166849359458       -1.16420964082092        0.87791855195231
H           -2.08794661482425        0.76391056348865       -0.88387568408161
H           -2.08789889231004        0.76387187446964        0.88395114655206
H           -2.74560220845332       -0.62039461135102        0.00002585875559
