19
 xtb: 6.7.1 (41059b4)
C            2.40157945115225        0.00005793776016        0.02588891429344
N            0.98874333593632        0.00002178713012       -0.32882116912501
C            0.32304857429559        1.19920280479464        0.18164959082079
C           -1.15049656430559        1.20165195602186       -0.22152807863567
N           -1.87273960108227       -0.00006460112334        0.21249461224937
C           -1.15043003456423       -1.20173680102593       -0.22154217322737
C            0.32311727848294       -1.19920626506046        0.18162793421591
H            2.88904243347213       -0.88708410921154       -0.39278008375368
H            2.56910680207600        0.00000657398536        1.12164017640997
H            2.88896979278935        0.88728278802635       -0.39268675784115
H            0.40001762968757        1.26052467601377        1.29029820040295
H            0.82845731507192        2.08316706073515       -0.22927918267501
H           -1.64920599126380        2.08623800316661        0.19127975850008
H           -1.22078372660150        1.26087859677281       -1.31563287493955
H           -1.91498590617577       -0.00007186421348        1.22884282645095
H           -1.64908626863717       -2.08635337347408        0.19126405912872
H           -1.22072191651949       -1.26096048812758       -1.31564633026759
H            0.40009459955696       -1.26054276417133        1.29027512889766
H            0.82857556747967       -2.08313473553871       -0.22931717930816
