20
 xtb: 6.7.1 (41059b4)
C           -1.54490276502992       -0.64170833136137        1.37962957224733
C           -0.99736458273686       -0.17695793545550        0.01979599798175
C           -1.73067320225456        1.10388048721318       -0.41816791987720
C           -1.18727434325639       -1.27555055694845       -1.02851217031494
C            0.46608230586029        0.20813113305325        0.23178140493610
O            0.84108729516337        1.01013736660345        1.05716761488125
O            1.31191522198242       -0.43229925755469       -0.60863226310548
C            2.70304771744853       -0.08147748529114       -0.44638042697739
H           -2.61178220677005       -0.86853333508423        1.28603405849495
H           -1.03200122205537       -1.54701080871108        1.72038355750584
H           -1.41301647854334        0.13638551374474        2.13510146371202
H           -2.79859426605736        0.89166242174363       -0.53303942050939
H           -1.35029999825584        1.46746476598770       -1.37855162774533
H           -1.60541049296179        1.89342984239815        0.32704026027683
H           -0.81597359176604       -0.96548701401638       -2.00849178306884
H           -0.66782522814482       -2.19471091551469       -0.74456420477228
H           -2.25478029854391       -1.50119049963209       -1.12200586567296
H            3.04424372205248       -0.33619688047825        0.56053130925435
H            2.84689953093761        0.98972446778027       -0.61035732448920
H            3.23902188498679       -0.66424457942307       -1.19580666669985
