13
 xtb: 6.7.1 (41059b4)
C           -2.41843401675175       -0.05597447522702        0.00002179077689
C           -1.86147435708573       -1.33284568944044        0.00007629539715
C           -0.47900801013953       -1.48085595833344        0.00008494404903
C            0.32750557617928       -0.35182475922292        0.00003915784179
C           -0.21757477897691        0.93709544553680       -0.00001315877576
C           -1.60663039647956        1.06924543256189       -0.00001950193794
O            0.53347359992823        2.06580437037188       -0.00005452187211
Cl           2.08046521308954       -0.51962201212840        0.00005544414147
H           -3.49619938442389        0.06692523639146        0.00001345174693
H           -2.49507132652663       -2.21242801833153        0.00011127194563
H           -0.02111886309192       -2.46340033641812        0.00013019336301
H           -2.02371951415990        2.07027720322768       -0.00005623845817
H            1.46949308034059        1.81886142113799       -0.00003329480581
