 xtb: 6.7.1 (41059b4)
          04092502523D

 11 10  0     0  0            999 V2000
   -2.5270    0.0745    0.0001 C   0  0  0  0  0  0  0  0  0  0  0  0
   -1.1178   -0.5079   -0.0002 C   0  0  0  0  0  0  0  0  0  0  0  0
   -0.0786    0.6005   -0.0002 C   0  0  0  0  0  0  0  0  0  0  0  0
    1.5717   -0.0803   -0.0004 Cl  0  0  0  0  0  0  0  0  0  0  0  0
   -3.2628   -0.7250    0.0000 H   0  0  0  0  0  0  0  0  0  0  0  0
   -2.6873    0.6898    0.8824 H   0  0  0  0  0  0  0  0  0  0  0  0
   -2.6875    0.6902   -0.8819 H   0  0  0  0  0  0  0  0  0  0  0  0
   -0.9768   -1.1347    0.8822 H   0  0  0  0  0  0  0  0  0  0  0  0
   -0.9771   -1.1344   -0.8828 H   0  0  0  0  0  0  0  0  0  0  0  0
   -0.1618    1.2228    0.8911 H   0  0  0  0  0  0  0  0  0  0  0  0
   -0.1620    1.2230   -0.8912 H   0  0  0  0  0  0  0  0  0  0  0  0
  1  2  1  0  0  0  0
  2  3  1  0  0  0  0
  3  4  1  0  0  0  0
  1  5  1  0  0  0  0
  1  6  1  0  0  0  0
  1  7  1  0  0  0  0
  2  8  1  0  0  0  0
  2  9  1  0  0  0  0
  3 10  1  0  0  0  0
  3 11  1  0  0  0  0
M  END
