19
 xtb: 6.7.1 (41059b4)
C            1.94210329536781        0.00004219264146        0.70884570909027
N            1.10539652016687       -0.00000144115900       -0.48732120338169
C            0.26763457040905        1.19992365704029       -0.60552843104514
C           -0.93319709138132        1.20588456692925        0.34346287605339
N           -1.73243156601414       -0.00005292790148        0.09074972395256
C           -0.93314813230255       -1.20594854795698        0.34350500105922
C            0.26768505327835       -1.19996645080151       -0.60548401707173
H            2.58815536829672        0.88510797084917        0.69417824723689
H            2.58814630524731       -0.88503148791296        0.69425047022823
H            1.39747895145325        0.00008352533898        1.66999401841955
H            0.89230833552045        2.08474792703357       -0.43407266421249
H           -0.10990176635413        1.24555725626498       -1.63624114149865
H           -0.58215872701598        1.27127973056530        1.39189187650906
H           -1.54911376679085        2.09175980303553        0.14672375202225
H           -2.54968024519356       -0.00005948985925        0.69009923212253
H           -0.58210866482847       -1.27129495050926        1.39193673778481
H           -1.54902763815509       -2.09185577870698        0.14679240683308
H            0.89239588002969       -2.08475784467245       -0.43399440251854
H           -0.10984606403685       -1.24565456031822       -1.63619649886335
