17
 xtb: 6.7.1 (41059b4)
C            1.83959710158711       -1.51632764880110       -0.00010358697922
C            0.57410069490184       -0.70151354476754       -0.00045257408213
C           -0.64960454774182       -1.38223682030982       -0.00024196592163
C           -1.84231706480827       -0.68009662763103        0.00008593425169
N           -1.90137196361388        0.65792652809938       -0.00019400974226
C           -0.73765059284494        1.30187646528884       -0.00046165287869
C            0.52911757050374        0.69903609031369       -0.00028840959323
C            1.73376448395948        1.60344863269637        0.00097278652906
H            2.74541799181304       -0.91198827765969       -0.01161760585895
H            1.87594674039527       -2.15782297050791        0.88684203386229
H            1.86493162220266       -2.17525578476417       -0.87444795731827
H           -0.66077064148725       -2.46914756626505       -0.00037415149418
H           -2.79472250042858       -1.20784673322846        0.00057257549143
H           -0.79636209526919        2.39202250958374       -0.00103773132975
H            1.72883804807859        2.24827636347819        0.88632118773828
H            2.67903678970851        1.06220618913172       -0.00622991529951
H            1.72186792692255        2.26009373717726       -0.87550678148287
