16
 xtb: 6.7.1 (41059b4)
C           -2.93674950492311        0.00012929988660       -0.00185989142571
C           -1.43171969473429       -0.00917592204866        0.00137649867184
C           -0.70815882103365       -1.20061321830757        0.00119932635380
C            0.68469963325925       -1.20566468800872        0.00015473994874
C            1.38005957554120        0.00056562753501       -0.00060086872155
C            0.67766831043315        1.20513473610645       -0.00006108951244
C           -0.70944521676287        1.18934974311157        0.00109096914408
O            2.74849372024683        0.06922741165638       -0.00116737585472
H           -3.33897238406428       -1.01527899013421        0.03777637957140
H           -3.33244270058021        0.55203464332727        0.85768467646374
H           -3.32882661483665        0.48092283733291       -0.90503380470988
H           -1.23811239862915       -2.14916352257799        0.00205054963823
H            1.22617094096420       -2.14894871449034        0.00052581771426
H            1.23058014354317        2.13833082217352        0.00005985408923
H           -1.24714896489115        2.13413696951785        0.00186760621346
H            3.10625625153886       -0.82546985366685       -0.00132516590613
