 xtb: 6.7.1 (41059b4)
          04082522383D

 14 13  0     0  0            999 V2000
   -2.2373    0.3158    0.6466 C   0  0  0  0  0  0  0  0  0  0  0  0
   -1.3061    0.4953   -0.5535 C   0  0  0  0  0  0  0  0  0  0  0  0
    0.0057   -0.2015   -0.2776 C   0  0  0  0  0  0  0  0  0  0  0  0
    0.1856   -1.3892   -0.3219 O   0  0  0  0  0  0  0  0  0  0  0  0
    0.9592    0.6778    0.0560 O   0  0  0  0  0  0  0  0  0  0  0  0
    2.2323    0.1341    0.3763 C   0  0  0  0  0  0  0  0  0  0  0  0
   -1.8119    0.7833    1.5317 H   0  0  0  0  0  0  0  0  0  0  0  0
   -3.2023    0.7726    0.4425 H   0  0  0  0  0  0  0  0  0  0  0  0
   -2.3859   -0.7422    0.8483 H   0  0  0  0  0  0  0  0  0  0  0  0
   -1.1179    1.5527   -0.7359 H   0  0  0  0  0  0  0  0  0  0  0  0
   -1.7571    0.0416   -1.4367 H   0  0  0  0  0  0  0  0  0  0  0  0
    2.6265   -0.4303   -0.4711 H   0  0  0  0  0  0  0  0  0  0  0  0
    2.1533   -0.5345    1.2359 H   0  0  0  0  0  0  0  0  0  0  0  0
    2.8761    0.9789    0.6065 H   0  0  0  0  0  0  0  0  0  0  0  0
  1  2  1  0  0  0  0
  2  3  1  0  0  0  0
  3  4  2  0  0  0  0
  3  5  1  0  0  0  0
  5  6  1  0  0  0  0
  1  7  1  0  0  0  0
  1  8  1  0  0  0  0
  1  9  1  0  0  0  0
  2 10  1  0  0  0  0
  2 11  1  0  0  0  0
  6 12  1  0  0  0  0
  6 13  1  0  0  0  0
  6 14  1  0  0  0  0
M  END
