 xtb: 6.7.1 (41059b4)
          04092502303D

 20 20  0     0  0            999 V2000
    0.8419    1.3998   -0.6269 C   0  0  0  0  0  0  0  0  0  0  0  0
    1.5872    0.1839   -0.0579 C   0  0  0  0  0  0  0  0  0  0  0  0
    2.5702    0.0983   -0.5467 H   0  0  0  0  0  0  0  0  0  0  0  0
    0.7846   -1.1071   -0.3372 C   0  0  0  0  0  0  0  0  0  0  0  0
    1.2287   -1.9175    0.2519 H   0  0  0  0  0  0  0  0  0  0  0  0
   -0.6749   -0.9159    0.1161 C   0  0  0  0  0  0  0  0  0  0  0  0
   -1.2824   -1.7557   -0.2404 H   0  0  0  0  0  0  0  0  0  0  0  0
   -1.2754    0.3970   -0.4501 C   0  0  0  0  0  0  0  0  0  0  0  0
   -1.3699    0.3498   -1.5493 H   0  0  0  0  0  0  0  0  0  0  0  0
   -0.4532    1.5004   -0.0980 O   0  0  0  0  0  0  0  0  0  0  0  0
   -2.5320    0.6064    0.0575 O   0  0  0  0  0  0  0  0  0  0  0  0
   -0.7946   -0.8974    1.5144 O   0  0  0  0  0  0  0  0  0  0  0  0
    0.8902   -1.5101   -1.6749 O   0  0  0  0  0  0  0  0  0  0  0  0
    1.7341    0.2851    1.3427 O   0  0  0  0  0  0  0  0  0  0  0  0
    0.8130    1.3355   -1.7263 H   0  0  0  0  0  0  0  0  0  0  0  0
    1.3482    2.3275   -0.3459 H   0  0  0  0  0  0  0  0  0  0  0  0
   -2.4935    0.4085    1.0077 H   0  0  0  0  0  0  0  0  0  0  0  0
   -0.0643   -0.3600    1.8626 H   0  0  0  0  0  0  0  0  0  0  0  0
    0.4242   -0.8879   -2.2449 H   0  0  0  0  0  0  0  0  0  0  0  0
    2.1124    1.1443    1.5627 H   0  0  0  0  0  0  0  0  0  0  0  0
  1  2  1  0  0  0  0
  2  3  1  0  0  0  0
  2  4  1  0  0  0  0
  4  5  1  0  0  0  0
  4  6  1  0  0  0  0
  6  7  1  0  0  0  0
  6  8  1  0  0  0  0
  8  9  1  0  0  0  0
  1 10  1  0  0  0  0
  8 10  1  0  0  0  0
  8 11  1  0  0  0  0
  6 12  1  0  0  0  0
  4 13  1  0  0  0  0
  2 14  1  0  0  0  0
  1 15  1  0  0  0  0
  1 16  1  0  0  0  0
 11 17  1  0  0  0  0
 12 18  1  0  0  0  0
 13 19  1  0  0  0  0
 14 20  1  0  0  0  0
M  END
