10
CONF3
C -1.3073223962 0.2730110738 0.0974290523
C -0.0127654010 -0.5130470169 -0.0544112182
N 1.1413129236 0.3994194313 0.0089160261
H -2.1736869275 -0.3954880097 0.0952621207
H -1.3021979948 0.8397260831 1.0330428412
H -1.4329231554 0.9836420878 -0.7274817921
H -0.0538970939 -1.1092292386 -0.9832533892
H 0.0786764501 -1.2258115348 0.7747050363
H 1.1014557181 1.0443591561 -0.7744701742
H 2.0030559329 -0.1234615891 -0.1050787740
10
CONF2
C -1.2525357753 0.3019625376 -0.0215825133
C -0.0060593387 -0.5711873220 -0.0231035320
N 1.2020231003 0.2710871637 -0.0199728126
H -1.2404106202 0.9858082980 -0.8750581968
H -2.1585358784 -0.3093662079 -0.0727079756
H -1.3076838865 0.9033659847 0.8930070015
H 0.0125588480 -1.1774688207 -0.9372370874
H -0.0543031212 -1.2764167569 0.8254461514
H 1.2290968326 0.8144110150 0.8374685121
H 2.0308211644 -0.3135121965 -0.0041070322
10
CONF1
C -1.2736310263 0.2609968184 0.0000361133
C 0.0133768846 -0.5644369960 0.0000141750
N 1.2624103420 0.2114375437 -0.0000631061
H -2.1604257766 -0.3832768565 0.0003076003
H -1.3253346836 0.9040605493 0.8856599838
H -1.3256139360 0.9036999267 -0.8858328189
H 0.0296991442 -1.2236734419 -0.8768046802
H 0.0297704677 -1.2236057783 0.8768822413
H 1.2766820573 0.8253980227 -0.8086807786
H 1.2767706594 0.8253985231 0.8085531735
