14
 xtb: 6.7.1 (41059b4)
C            2.04832368017166        0.75823106887161        0.00022062530496
C            0.77184899680965       -0.05857728779924       -0.00033389121914
O            0.81469244218893       -1.27688561835081        0.00010013172560
C           -0.52177942945347        0.67195704108712       -0.00078091367289
C           -1.67972448878654        0.01456157988231       -0.74057633932588
C           -1.67931330707052        0.01606364028323        0.74115178381393
H            2.63759375555308        0.48471180576349        0.88063851664503
H            2.64028974550079        0.48184558858432       -0.87745960974809
H            1.87514263677823        1.83592573317457       -0.00167522051491
H           -0.48382916378154        1.75557579055233       -0.00179693819074
H           -2.35701463682173        0.67864836102389       -1.26539726636500
H           -1.43381790469750       -0.91818640401601       -1.23610488542253
H           -2.35626365211884        0.68124180186918        1.26503067310863
H           -1.43314862307386       -0.91566714254101        1.23845805562644
