20
 xtb: 6.7.1 (41059b4)
C            0.87413959294250        1.37996406269901       -0.60804922577363
C            1.59236842833392        0.15168770870768       -0.07202037582113
H            2.55416177543237        0.04293256025849       -0.59569341529053
C            0.74914642422086       -1.10807376083154       -0.31475196423766
H            1.17661334831402       -1.94982102549878        0.25692485337987
C           -0.70321507035614       -0.88890185357980        0.14148234004877
H           -1.32301183395850       -1.73358505654452       -0.19024274431933
C           -1.27593069800925        0.40556168732307       -0.45594916628785
H           -1.32179882977803        0.34966179620783       -1.55448440431638
O           -0.43805137878692        1.50226151165275       -0.06644685792105
O           -2.55803220207379        0.64677203490943        0.01118520199089
O           -0.81192673631119       -0.84698841344911        1.56166281782957
O            0.81528675388797       -1.35473212093597       -1.72078211061785
O            1.79248856785997        0.35695921600004        1.33603332840845
H            0.84019887558708        1.31872962334316       -1.70705652516980
H            1.41668440995833        2.28292249564044       -0.31569897038412
H           -2.54529165019466        0.43836116764957        0.95816260149200
H           -0.17302371987203       -0.17760119177520        1.85932096735049
H            0.30596360050857       -2.14958827120970       -1.91537054220956
H            2.30998580852673       -0.38244747341675        1.67664704460814
