19
 xtb: 6.7.1 (41059b4)
C            2.18356541317353       -1.20081294059332       -0.06407306794682
C            1.41780316868728        0.10444247566568        0.04089455949545
O            1.98166125600897        1.19001373471780        0.14282528901157
N            0.06014909119048        0.00474195324938        0.02205127768961
C           -0.72972370130054       -1.22734662252965       -0.09643550672812
C           -2.15023661137945       -0.75775958670071        0.23211651713306
C           -2.16737093974608        0.67896677372089       -0.30167300774231
C           -0.78395569873630        1.20668563329366        0.08362746610888
H            3.24249972333873       -0.96496354936603       -0.16319110601147
H            1.85826838897537       -1.79885008762822       -0.92150554518595
H            2.03802549837393       -1.80710973120445        0.83662843803511
H           -0.67893781954665       -1.63370003354509       -1.11846590121232
H           -0.37466857870320       -2.00083073941593        0.59275729592760
H           -2.91466650947915       -1.39877654662424       -0.21420157613143
H           -2.29725613785832       -0.75503585809586        1.31811721925811
H           -2.27538939741567        0.67106625150603       -1.39236831581661
H           -2.97684572769292        1.28292576692870        0.11522314980991
H           -0.39793739554646        1.97503350702582       -0.59197235111042
H           -0.77527096240084        1.62596001732840        1.09926575416274
