 xtb: 6.7.1 (41059b4)
          04092504163D

 12 12  0     0  0            999 V2000
   -2.4657    0.6925    0.0000 C   0  0  0  0  0  0  0  0  0  0  0  0
   -2.4658   -0.6924   -0.0001 C   0  0  0  0  0  0  0  0  0  0  0  0
   -1.2694   -1.3870   -0.0001 C   0  0  0  0  0  0  0  0  0  0  0  0
   -0.0673   -0.6960   -0.0000 C   0  0  0  0  0  0  0  0  0  0  0  0
   -0.0672    0.6960    0.0000 C   0  0  0  0  0  0  0  0  0  0  0  0
   -1.2693    1.3871    0.0001 C   0  0  0  0  0  0  0  0  0  0  0  0
    1.4206    1.5661    0.0001 Cl  0  0  0  0  0  0  0  0  0  0  0  0
    1.4205   -1.5663   -0.0001 Cl  0  0  0  0  0  0  0  0  0  0  0  0
   -3.3976    1.2362    0.0001 H   0  0  0  0  0  0  0  0  0  0  0  0
   -3.3977   -1.2360   -0.0001 H   0  0  0  0  0  0  0  0  0  0  0  0
   -1.2568   -2.4655   -0.0002 H   0  0  0  0  0  0  0  0  0  0  0  0
   -1.2566    2.4655    0.0002 H   0  0  0  0  0  0  0  0  0  0  0  0
  1  2  4  0  0  0  0
  2  3  4  0  0  0  0
  3  4  4  0  0  0  0
  4  5  4  0  0  0  0
  1  6  4  0  0  0  0
  5  6  4  0  0  0  0
  5  7  1  0  0  0  0
  4  8  1  0  0  0  0
  1  9  1  0  0  0  0
  2 10  1  0  0  0  0
  3 11  1  0  0  0  0
  6 12  1  0  0  0  0
M  END
