 xtb: 6.7.1 (41059b4)
          04082522263D

 14 13  0     0  0            999 V2000
   -2.2143    0.2482   -0.6314 C   0  0  0  0  0  0  0  0  0  0  0  0
   -1.3036    0.5528    0.5596 C   0  0  0  0  0  0  0  0  0  0  0  0
    0.0222   -0.1447    0.3645 C   0  0  0  0  0  0  0  0  0  0  0  0
    0.2471   -1.2975    0.6203 O   0  0  0  0  0  0  0  0  0  0  0  0
    0.9287    0.6841   -0.1696 O   0  0  0  0  0  0  0  0  0  0  0  0
    2.2082    0.1282   -0.4394 C   0  0  0  0  0  0  0  0  0  0  0  0
   -3.1853    0.7153   -0.4874 H   0  0  0  0  0  0  0  0  0  0  0  0
   -1.7775    0.6304   -1.5511 H   0  0  0  0  0  0  0  0  0  0  0  0
   -2.3543   -0.8255   -0.7308 H   0  0  0  0  0  0  0  0  0  0  0  0
   -1.7594    0.1775    1.4762 H   0  0  0  0  0  0  0  0  0  0  0  0
   -1.1345    1.6260    0.6410 H   0  0  0  0  0  0  0  0  0  0  0  0
    2.6958   -0.1668    0.4919 H   0  0  0  0  0  0  0  0  0  0  0  0
    2.7799    0.9056   -0.9394 H   0  0  0  0  0  0  0  0  0  0  0  0
    2.1123   -0.7519   -1.0784 H   0  0  0  0  0  0  0  0  0  0  0  0
  1  2  1  0  0  0  0
  2  3  1  0  0  0  0
  3  4  2  0  0  0  0
  3  5  1  0  0  0  0
  5  6  1  0  0  0  0
  1  7  1  0  0  0  0
  1  8  1  0  0  0  0
  1  9  1  0  0  0  0
  2 10  1  0  0  0  0
  2 11  1  0  0  0  0
  6 12  1  0  0  0  0
  6 13  1  0  0  0  0
  6 14  1  0  0  0  0
M  END
