14
 xtb: 6.7.1 (41059b4)
C           -2.22870659529404        0.21393790147474       -0.62077885780011
C           -1.30184211941658        0.58611884117425        0.54580295765263
C            0.03037848273630       -0.09973858453935        0.38130903008099
O            0.26357088733578       -1.24815559380791        0.67922355181046
O            0.94110442343511        0.72206455731347       -0.19762544642702
C            2.22552451382440        0.11480410951164       -0.45222208905074
H           -2.36420023722128       -0.86973748414834       -0.67172061048763
H           -3.20932225242422        0.67892970332771       -0.48936154370627
H           -1.81305777239929        0.55679292148707       -1.57277427203119
H           -1.73245736933067        0.24038597999272        1.48960459825392
H           -1.16196036427059        1.66920029241328        0.59273258259623
H            2.11457806799339       -0.74765988783591       -1.11441434244992
H            2.68381172770195       -0.21214865852969        0.48443682896497
H            2.82642520479233        0.89099852581653       -0.92539894674132
