 xtb: 6.7.1 (41059b4)
          04092504543D

 18 18  0     0  0            999 V2000
   -1.4140   -0.3085   -0.2416 C   0  0  0  0  0  0  0  0  0  0  0  0
   -0.4398   -1.3788    0.2417 C   0  0  0  0  0  0  0  0  0  0  0  0
    0.9742   -1.0703   -0.2416 C   0  0  0  0  0  0  0  0  0  0  0  0
    1.4140    0.3085    0.2416 C   0  0  0  0  0  0  0  0  0  0  0  0
    0.4398    1.3789   -0.2417 C   0  0  0  0  0  0  0  0  0  0  0  0
   -0.9742    1.0703    0.2416 C   0  0  0  0  0  0  0  0  0  0  0  0
   -2.4198   -0.5280    0.1236 H   0  0  0  0  0  0  0  0  0  0  0  0
   -1.4458   -0.3155   -1.3338 H   0  0  0  0  0  0  0  0  0  0  0  0
   -0.4497   -1.4098    1.3339 H   0  0  0  0  0  0  0  0  0  0  0  0
   -0.7527   -2.3596   -0.1234 H   0  0  0  0  0  0  0  0  0  0  0  0
    1.6672   -1.8316    0.1235 H   0  0  0  0  0  0  0  0  0  0  0  0
    0.9961   -1.0944   -1.3338 H   0  0  0  0  0  0  0  0  0  0  0  0
    1.4458    0.3155    1.3338 H   0  0  0  0  0  0  0  0  0  0  0  0
    2.4198    0.5280   -0.1235 H   0  0  0  0  0  0  0  0  0  0  0  0
    0.7527    2.3596    0.1234 H   0  0  0  0  0  0  0  0  0  0  0  0
    0.4497    1.4098   -1.3339 H   0  0  0  0  0  0  0  0  0  0  0  0
   -0.9961    1.0944    1.3338 H   0  0  0  0  0  0  0  0  0  0  0  0
   -1.6672    1.8317   -0.1235 H   0  0  0  0  0  0  0  0  0  0  0  0
  1  2  1  0  0  0  0
  2  3  1  0  0  0  0
  3  4  1  0  0  0  0
  4  5  1  0  0  0  0
  1  6  1  0  0  0  0
  5  6  1  0  0  0  0
  1  7  1  0  0  0  0
  1  8  1  0  0  0  0
  2  9  1  0  0  0  0
  2 10  1  0  0  0  0
  3 11  1  0  0  0  0
  3 12  1  0  0  0  0
  4 13  1  0  0  0  0
  4 14  1  0  0  0  0
  5 15  1  0  0  0  0
  5 16  1  0  0  0  0
  6 17  1  0  0  0  0
  6 18  1  0  0  0  0
M  END
