11
CONF2
C -1.4276578628 -0.9992847290 0.0004554001
S -0.0018201405 0.1251410271 -0.0006620365
O -0.0114632168 0.8544408508 1.2790430919
O -0.0115679898 0.8516853200 -1.2820119338
C 1.4417574904 -1.0036911238 0.0001796567
H -1.4048328225 -1.6104233347 -0.9041544794
H -1.4035132822 -1.6103066398 0.9051005491
H -2.3093629342 -0.3544735608 0.0010483444
H 2.0121667965 -0.8035401238 0.9080323040
H 1.0997621288 -2.0404871958 -0.0146194063
H 2.0270615185 -0.7836179685 -0.8935287316
