12
 xtb: 6.7.1 (41059b4)
C            1.46381274706082       -0.35039893039045        0.49220710087190
C            0.67673812616527        0.46984568635075       -0.52305231062026
C           -0.81543780333912        0.33831300737589       -0.44367868657375
C           -1.49776266344020       -0.41469667732587        0.41510385816752
H            1.20386698022843       -0.06670231894105        1.51697876923057
H            2.53846767997807       -0.19476352177272        0.36292969558744
H            1.26289905703982       -1.42031285690673        0.37749032062987
H            0.99154749416049        0.20195592804958       -1.54205348731471
H            0.93360810636365        1.53420581012109       -0.42070424233704
H           -1.36997753187015        0.92879986214624       -1.17354596981326
H           -2.58219036613122       -0.44438983826858        0.39398233416362
H           -1.00568144518747       -1.02610644386358        1.16528926334398
