 xtb: 6.7.1 (41059b4)
          04082522383D

 14 13  0     0  0            999 V2000
   -2.4874   -0.0517    0.1404 C   0  0  0  0  0  0  0  0  0  0  0  0
   -1.2285    0.7643   -0.1163 C   0  0  0  0  0  0  0  0  0  0  0  0
    0.0220   -0.0705    0.0388 C   0  0  0  0  0  0  0  0  0  0  0  0
    0.0607   -1.2582    0.2120 O   0  0  0  0  0  0  0  0  0  0  0  0
    1.1183    0.6993   -0.0498 O   0  0  0  0  0  0  0  0  0  0  0  0
    2.3654    0.0283    0.0672 C   0  0  0  0  0  0  0  0  0  0  0  0
   -2.5256   -0.9032   -0.5336 H   0  0  0  0  0  0  0  0  0  0  0  0
   -2.4912   -0.4296    1.1594 H   0  0  0  0  0  0  0  0  0  0  0  0
   -3.3726    0.5602   -0.0116 H   0  0  0  0  0  0  0  0  0  0  0  0
   -1.1579    1.6107    0.5692 H   0  0  0  0  0  0  0  0  0  0  0  0
   -1.2294    1.1673   -1.1318 H   0  0  0  0  0  0  0  0  0  0  0  0
    3.1318    0.7947   -0.0118 H   0  0  0  0  0  0  0  0  0  0  0  0
    2.4758   -0.7089   -0.7307 H   0  0  0  0  0  0  0  0  0  0  0  0
    2.4314   -0.4840    1.0292 H   0  0  0  0  0  0  0  0  0  0  0  0
  1  2  1  0  0  0  0
  2  3  1  0  0  0  0
  3  4  2  0  0  0  0
  3  5  1  0  0  0  0
  5  6  1  0  0  0  0
  1  7  1  0  0  0  0
  1  8  1  0  0  0  0
  1  9  1  0  0  0  0
  2 10  1  0  0  0  0
  2 11  1  0  0  0  0
  6 12  1  0  0  0  0
  6 13  1  0  0  0  0
  6 14  1  0  0  0  0
M  END
