14
 xtb: 6.7.1 (41059b4)
C           -1.95323975837976        1.16539978423004        0.33130472767242
C           -1.48947123394923       -0.15101645281152       -0.28262338426803
C           -0.01000643554707       -0.45221105636153       -0.20545190240432
O            0.48021486273740       -1.52844770454107       -0.45855956556847
O            0.71745059595938        0.62986570550016        0.16019900462609
C            2.14193922400978        0.40528258447459        0.22704041967157
H           -1.49228259619747        2.02131882074929       -0.16627790240170
H           -3.03895806720058        1.25897246633087        0.23883618216543
H           -1.69612883560207        1.21904974593735        1.39231883980421
H           -1.74632501106997       -0.19462448342144       -1.34895971892308
H           -1.99518195770230       -1.00817541071776        0.17394818125107
H            2.36836888792313       -0.39265990325608        0.93871375925976
H            2.56980707716553        1.35193835931738        0.55682521054533
H            2.52928811500862        0.12655386281756       -0.75645071739212
