12
 xtb: 6.7.1 (41059b4)
C           -2.51340821231050        0.08077288659207        0.00642478905243
C           -1.10446852742568       -0.51279978759814        0.03797302372577
C           -0.04016389747862        0.57267810350660       -0.06102487789896
S            1.69053719995939       -0.06110521172533        0.04465838203267
H           -3.27168312179570       -0.70520453504736        0.06471522792070
H           -2.67240978082378        0.76219118495864        0.84879112143388
H           -2.68576029760888        0.64446375459378       -0.91647536331398
H           -0.97937994777136       -1.21928150661096       -0.79157261728634
H           -0.95073877436778       -1.08389625470270        0.95983229580056
H           -0.15207884052136        1.15389826114428       -0.98202092841135
H           -0.12746589457427        1.27302419623996        0.77700563216470
H            1.64288764289948       -0.80801451669806       -1.07314223435896
