20
 xtb: 6.7.1 (41059b4)
C            0.60383658955650        1.69673306913305        0.02043860252231
C            1.39337696598479        0.42001039620428       -0.25026286183555
H            1.59562830577358        0.35034672729848       -1.33621766758519
C            0.54540655936747       -0.76886375858709        0.17420281646209
H            0.39063964836163       -0.72066502024789        1.25882647089259
C           -0.80309229656680       -0.73727782616933       -0.53296034233748
H           -0.65142990687492       -0.86275032582927       -1.61964771387620
C           -1.49057152352557        0.62122364867669       -0.31384398587642
H           -2.36644015961350        0.71239832490109       -0.97267510135356
O           -0.64016046953656        1.66993164674048       -0.69185620343641
O           -1.86734780997740        0.77290766048273        1.04174260536917
O           -1.67828873392730       -1.74647866543084       -0.03109343940018
O            1.21701932143721       -2.02311986538608       -0.04778912932697
O            2.60812507562866        0.49013026706459        0.48317471849708
H            1.14563367794063        2.56983114202480       -0.34928686303941
H            0.43810579744219        1.80748339192711        1.09926791113932
H           -2.17876660675735       -0.09479272255480        1.33795452835262
H           -1.14609196528847       -2.54146773800506        0.10613352968207
H            1.38641504188408       -2.10072193664665       -0.99683819297637
H            2.95946906560350       -0.40776097068091        0.54035762954450
