21
 xtb: 6.7.1 (41059b4)
C            2.86525556504436       -0.50437662825381        0.00157915997294
C            1.38178468213281       -0.25160599820592       -0.00274061621131
C            0.89268352284691        1.05964934530464       -0.00394048486976
C           -0.47309094153815        1.32267130960855        0.00044506730133
C           -1.36425978187338        0.24355359314533        0.00557132668652
C           -0.90900190269867       -1.07065943250310        0.00510329721881
C            0.47117514163783       -1.30292012694180        0.00173901215135
C           -1.86967894316053       -2.22905880621028       -0.00434924061228
C           -0.99610433658633        2.73375358338361       -0.00074837400538
H            3.32729787610422       -0.11445298967482        0.91536685841460
H            3.08780572239322       -1.57251145132647       -0.05887522347742
H            3.35179808785131       -0.00740426840467       -0.84441102487321
H            1.59666938422682        1.88902464705570       -0.00666637573461
H           -2.43456624189242        0.43822375452487        0.00977527136026
H            0.83734492868101       -2.32728628715780        0.00320423936734
H           -1.81810388841708       -2.77231785988603       -0.95471824343539
H           -1.63293682873745       -2.94378368278357        0.79054534641187
H           -2.90027812650908       -1.89346894824829        0.13483047685573
H           -1.62874983796181        2.91909237361857        0.87402708941398
H           -0.18075876477352        3.46105300261662        0.01087731880846
H           -1.60812963051112        2.92495277667836       -0.88895624607452
