 xtb: 6.7.1 (41059b4)
          04082522433D

 12 12  0     0  0            999 V2000
   -0.0000   -2.1148   -0.0001 C   0  0  0  0  0  0  0  0  0  0  0  0
    1.2035   -1.4312   -0.0001 C   0  0  0  0  0  0  0  0  0  0  0  0
    1.1918   -0.0450    0.0000 C   0  0  0  0  0  0  0  0  0  0  0  0
   -0.0000    0.6622    0.0001 C   0  0  0  0  0  0  0  0  0  0  0  0
   -1.1919   -0.0450    0.0001 C   0  0  0  0  0  0  0  0  0  0  0  0
   -1.2035   -1.4312   -0.0001 C   0  0  0  0  0  0  0  0  0  0  0  0
   -2.6831    0.8227    0.0001 Cl  0  0  0  0  0  0  0  0  0  0  0  0
    2.6830    0.8227    0.0000 Cl  0  0  0  0  0  0  0  0  0  0  0  0
   -0.0000   -3.1938   -0.0002 H   0  0  0  0  0  0  0  0  0  0  0  0
    2.1412   -1.9633   -0.0002 H   0  0  0  0  0  0  0  0  0  0  0  0
   -0.0000    1.7402    0.0002 H   0  0  0  0  0  0  0  0  0  0  0  0
   -2.1412   -1.9634   -0.0001 H   0  0  0  0  0  0  0  0  0  0  0  0
  1  2  4  0  0  0  0
  2  3  4  0  0  0  0
  3  4  4  0  0  0  0
  4  5  4  0  0  0  0
  1  6  4  0  0  0  0
  5  6  4  0  0  0  0
  5  7  1  0  0  0  0
  3  8  1  0  0  0  0
  1  9  1  0  0  0  0
  2 10  1  0  0  0  0
  4 11  1  0  0  0  0
  6 12  1  0  0  0  0
M  END
