 xtb: 6.7.1 (41059b4)
          04092504123D

  7  7  0     0  0            999 V2000
    0.2037   -0.0003   -0.0065 C   0  0  0  0  0  0  0  0  0  0  0  0
   -1.3372    0.0026   -0.2115 N   0  0  0  0  0  0  0  0  0  0  0  0
   -1.8470    1.0770   -0.2579 O   0  0  0  0  0  0  0  0  0  0  0  0
   -1.8510   -1.0699   -0.2582 O   0  0  0  0  0  0  0  0  0  0  0  0
    0.8613   -1.4600   -0.7219 Cl  0  0  0  0  0  0  0  0  0  0  0  0
    0.8669    1.4577   -0.7202 Cl  0  0  0  0  0  0  0  0  0  0  0  0
    0.3999   -0.0018    1.7607 Cl  0  0  0  0  0  0  0  0  0  0  0  0
  1  2  1  0  0  0  0
  2  3  2  0  0  0  0
  2  4  2  0  0  0  0
  3  4  1  0  0  0  0
  1  5  1  0  0  0  0
  1  6  1  0  0  0  0
  1  7  1  0  0  0  0
M  END
