20
 xtb: 6.7.1 (41059b4)
C            0.85510875052549        1.38354941286230       -0.64353236149961
C            1.59825435862649        0.18683825604690       -0.06442849017263
H            2.58300309136323        0.09774955085120       -0.55573831148705
C            0.79159664234724       -1.09665001517358       -0.30945417876010
H            1.22734581943370       -1.92074937151777        0.27449354586272
C           -0.66942041366831       -0.91523429926475        0.12136223796948
H           -1.24946300231477       -1.76641769719781       -0.25223520698334
C           -1.27390947776373        0.37517377805884       -0.45440827977658
H           -1.34580491084303        0.32302317202513       -1.55126056003382
O           -0.44701031864139        1.49970457080610       -0.09073862160888
O           -2.54276787566124        0.59478484320931        0.05070833329631
O           -0.80525472769084       -0.91139568451298        1.53985897117406
O            0.76340825891394       -1.39755436341291       -1.70655447539039
O            1.76651604579775        0.29200295291065        1.35908122275580
H            0.81584490799916        1.27869488994061       -1.74052074591751
H            1.38009262098903        2.31829959498083       -0.41038715499799
H           -2.50147451507893        0.34799636184447        0.98857216408715
H           -0.10233365323193       -0.33522004895666        1.88148573166209
H            1.64558024518010       -1.67552865433821       -1.97650372285082
H            1.96261429256692        1.21136892426457        1.57491620454815
