7
 xtb: 6.7.1 (41059b4)
C           -1.25660703748653       -0.16815500404779        0.00000753842412
C            0.12580505922212        0.41580743151779        0.00007748440151
O            1.14503860242350       -0.23191112622439        0.00006155769866
H           -1.80519144878710        0.19501676472750        0.87790837547286
H           -1.80480211922158        0.19435744363169       -0.87841739722036
H           -1.22057618145742       -1.25844512433839        0.00039127917585
H            0.16591292861206        1.53153201351847       -0.00014597903849
