 xtb: 6.7.1 (41059b4)
          04092505443D

 11 11  0     0  0            999 V2000
    1.6398    1.1963    0.0000 C   0  0  0  0  0  0  0  0  0  0  0  0
    0.2550    1.2290   -0.0000 C   0  0  0  0  0  0  0  0  0  0  0  0
   -0.4266    0.0204   -0.0001 C   0  0  0  0  0  0  0  0  0  0  0  0
    0.2995   -1.1654   -0.0000 C   0  0  0  0  0  0  0  0  0  0  0  0
    1.6174   -1.1860    0.0001 N   0  0  0  0  0  0  0  0  0  0  0  0
    2.2726   -0.0380    0.0001 C   0  0  0  0  0  0  0  0  0  0  0  0
   -2.1523   -0.0099   -0.0002 Cl  0  0  0  0  0  0  0  0  0  0  0  0
    2.2112    2.1114    0.0001 H   0  0  0  0  0  0  0  0  0  0  0  0
   -0.2855    2.1631   -0.0001 H   0  0  0  0  0  0  0  0  0  0  0  0
   -0.1969   -2.1259   -0.0000 H   0  0  0  0  0  0  0  0  0  0  0  0
    3.3511   -0.1172    0.0001 H   0  0  0  0  0  0  0  0  0  0  0  0
  1  2  4  0  0  0  0
  2  3  4  0  0  0  0
  3  4  4  0  0  0  0
  4  5  4  0  0  0  0
  1  6  4  0  0  0  0
  5  6  4  0  0  0  0
  3  7  1  0  0  0  0
  1  8  1  0  0  0  0
  2  9  1  0  0  0  0
  4 10  1  0  0  0  0
  6 11  1  0  0  0  0
M  END
