20
 xtb: 6.7.1 (41059b4)
C            0.64228044330538        1.68581182460761        0.02142219832107
C            1.39670231135470        0.39501093982513       -0.26489416022971
H            1.58457474190542        0.31493497020777       -1.34922833566585
C            0.53844330526590       -0.78306630906255        0.16579345912442
H            0.39641232720245       -0.72645497534091        1.25727593882053
C           -0.81801063339860       -0.71511148582852       -0.51885396645972
H           -0.68177766790859       -0.87726447634967       -1.59729670270218
C           -1.47761525844648        0.66014145892657       -0.29966755156684
H           -2.35082477505799        0.77693302292275       -0.96194886171464
O           -0.60975986445712        1.69348208128577       -0.68023764005084
O           -1.86399516927354        0.82153623142588        1.05260687978177
O           -1.61867764310521       -1.76468113569939        0.05811320299093
O            1.24307593208771       -1.97611760447574       -0.18270479529164
O            2.61971702662053        0.43885468234260        0.45792177146232
H            1.20166382582984        2.54649875724414       -0.35052436060477
H            0.48534332514534        1.79896977892946        1.10139444916071
H           -2.08004293063181       -0.05938134810816        1.39063666445672
H           -2.35206657429272       -1.95717625998888       -0.53740951982705
H            0.71412487263910       -2.72272910539429        0.12232848912349
H            3.01963453567778       -0.43669190037881        0.38506248616915
