 xtb: 6.7.1 (41059b4)
          04092502503D

 14 14  0     0  0            999 V2000
    2.0339    0.7612    0.0001 C   0  0  0  0  0  0  0  0  0  0  0  0
    0.7810   -0.0850   -0.0003 C   0  0  0  0  0  0  0  0  0  0  0  0
    0.8305   -1.2937    0.0003 O   0  0  0  0  0  0  0  0  0  0  0  0
   -0.5057    0.6518   -0.0005 C   0  0  0  0  0  0  0  0  0  0  0  0
   -1.6676    0.0240   -0.7408 C   0  0  0  0  0  0  0  0  0  0  0  0
   -1.6673    0.0252    0.7413 C   0  0  0  0  0  0  0  0  0  0  0  0
    2.6267    0.5108    0.8778 H   0  0  0  0  0  0  0  0  0  0  0  0
    2.6298    0.5070   -0.8744 H   0  0  0  0  0  0  0  0  0  0  0  0
    1.8184    1.8246   -0.0025 H   0  0  0  0  0  0  0  0  0  0  0  0
   -0.4367    1.7309   -0.0014 H   0  0  0  0  0  0  0  0  0  0  0  0
   -2.3369    0.6841   -1.2707 H   0  0  0  0  0  0  0  0  0  0  0  0
   -1.4636   -0.9098   -1.2422 H   0  0  0  0  0  0  0  0  0  0  0  0
   -2.3364    0.6862    1.2704 H   0  0  0  0  0  0  0  0  0  0  0  0
   -1.4632   -0.9078    1.2443 H   0  0  0  0  0  0  0  0  0  0  0  0
  1  2  1  0  0  0  0
  2  3  2  0  0  0  0
  2  4  1  0  0  0  0
  4  5  1  0  0  0  0
  4  6  1  0  0  0  0
  5  6  1  0  0  0  0
  1  7  1  0  0  0  0
  1  8  1  0  0  0  0
  1  9  1  0  0  0  0
  4 10  1  0  0  0  0
  5 11  1  0  0  0  0
  5 12  1  0  0  0  0
  6 13  1  0  0  0  0
  6 14  1  0  0  0  0
M  END
