 xtb: 6.7.1 (41059b4)
          04082522383D

 14 13  0     0  0            999 V2000
   -2.2435    0.3086    0.6405 C   0  0  0  0  0  0  0  0  0  0  0  0
   -1.2989    0.5066   -0.5460 C   0  0  0  0  0  0  0  0  0  0  0  0
    0.0045   -0.2076   -0.2734 C   0  0  0  0  0  0  0  0  0  0  0  0
    0.1613   -1.3987   -0.3171 O   0  0  0  0  0  0  0  0  0  0  0  0
    0.9650    0.6666    0.0511 O   0  0  0  0  0  0  0  0  0  0  0  0
    2.2519    0.1554    0.3752 C   0  0  0  0  0  0  0  0  0  0  0  0
   -3.2031    0.7766    0.4365 H   0  0  0  0  0  0  0  0  0  0  0  0
   -2.4011   -0.7523    0.8181 H   0  0  0  0  0  0  0  0  0  0  0  0
   -1.8239    0.7540    1.5396 H   0  0  0  0  0  0  0  0  0  0  0  0
   -1.1006    1.5660   -0.7049 H   0  0  0  0  0  0  0  0  0  0  0  0
   -1.7445    0.0751   -1.4430 H   0  0  0  0  0  0  0  0  0  0  0  0
    2.9782    0.6061   -0.3009 H   0  0  0  0  0  0  0  0  0  0  0  0
    2.2568   -0.9307    0.2658 H   0  0  0  0  0  0  0  0  0  0  0  0
    2.4834    0.4301    1.4046 H   0  0  0  0  0  0  0  0  0  0  0  0
  1  2  1  0  0  0  0
  2  3  1  0  0  0  0
  3  4  2  0  0  0  0
  3  5  1  0  0  0  0
  5  6  1  0  0  0  0
  1  7  1  0  0  0  0
  1  8  1  0  0  0  0
  1  9  1  0  0  0  0
  2 10  1  0  0  0  0
  2 11  1  0  0  0  0
  6 12  1  0  0  0  0
  6 13  1  0  0  0  0
  6 14  1  0  0  0  0
M  END
