 xtb: 6.7.1 (41059b4)
          04092502303D

 20 20  0     0  0            999 V2000
    0.5894    1.7093   -0.0717 C   0  0  0  0  0  0  0  0  0  0  0  0
    1.3861    0.4092   -0.2432 C   0  0  0  0  0  0  0  0  0  0  0  0
    1.6456    0.2666   -1.2981 H   0  0  0  0  0  0  0  0  0  0  0  0
    0.5293   -0.7783    0.2192 C   0  0  0  0  0  0  0  0  0  0  0  0
    0.3193   -0.6862    1.2982 H   0  0  0  0  0  0  0  0  0  0  0  0
   -0.8021   -0.7500   -0.5354 C   0  0  0  0  0  0  0  0  0  0  0  0
   -0.5886   -0.8040   -1.6166 H   0  0  0  0  0  0  0  0  0  0  0  0
   -1.4802    0.6023   -0.2631 C   0  0  0  0  0  0  0  0  0  0  0  0
   -2.3996    0.6713   -0.8592 H   0  0  0  0  0  0  0  0  0  0  0  0
   -0.6647    1.6556   -0.7224 O   0  0  0  0  0  0  0  0  0  0  0  0
   -1.7403    0.7106    1.0998 O   0  0  0  0  0  0  0  0  0  0  0  0
   -1.6544   -1.7890   -0.1550 O   0  0  0  0  0  0  0  0  0  0  0  0
    1.1721   -2.0066   -0.0382 O   0  0  0  0  0  0  0  0  0  0  0  0
    2.6148    0.4377    0.4434 O   0  0  0  0  0  0  0  0  0  0  0  0
    1.1205    2.5505   -0.5191 H   0  0  0  0  0  0  0  0  0  0  0  0
    0.4474    1.8991    1.0032 H   0  0  0  0  0  0  0  0  0  0  0  0
   -2.3300    1.4576    1.2532 H   0  0  0  0  0  0  0  0  0  0  0  0
   -1.1082   -2.5806   -0.0639 H   0  0  0  0  0  0  0  0  0  0  0  0
    2.1182   -1.8750    0.1049 H   0  0  0  0  0  0  0  0  0  0  0  0
    2.4493    0.6401    1.3729 H   0  0  0  0  0  0  0  0  0  0  0  0
  1  2  1  0  0  0  0
  2  3  1  0  0  0  0
  2  4  1  0  0  0  0
  4  5  1  0  0  0  0
  4  6  1  0  0  0  0
  6  7  1  0  0  0  0
  6  8  1  0  0  0  0
  8  9  1  0  0  0  0
  1 10  1  0  0  0  0
  8 10  1  0  0  0  0
  8 11  1  0  0  0  0
  6 12  1  0  0  0  0
  4 13  1  0  0  0  0
  2 14  1  0  0  0  0
  1 15  1  0  0  0  0
  1 16  1  0  0  0  0
 11 17  1  0  0  0  0
 12 18  1  0  0  0  0
 13 19  1  0  0  0  0
 14 20  1  0  0  0  0
M  END
