8
CONF1
C -0.4484963861 0.6027929191 0.0001215647
C 0.4484397756 -0.6027112125 0.0001221893
Br 2.3280063005 0.0297548053 0.0000727084
Br -2.3280592194 -0.0296794881 0.0000842876
H -0.3310191040 1.2111099145 -0.8950451417
H -0.3310453112 1.2110893131 0.8953040633
H 0.3309901109 -1.2110074179 0.8953062882
H 0.3309575692 -1.2110311278 -0.8950403042
8
CONF2
C -0.6072330107 0.4433724398 1.2738468365
C 0.6073516841 -0.4430292725 1.2739912958
Br 1.8304607035 -0.0637798962 -0.2209635981
Br -1.8304009473 0.0635233815 -0.2209037439
H -0.3497331643 1.4991981462 1.1965742421
H -1.1884117745 0.2651972791 2.1820182126
H 1.1885887623 -0.2644631996 2.1820485064
H 0.3498360822 -1.4988855308 1.1971997673
