 xtb: 6.7.1 (41059b4)
          04082523253D

 19 19  0     0  0            999 V2000
   -2.5878    0.5634   -0.0290 C   0  0  0  0  0  0  0  0  0  0  0  0
   -1.2272   -0.0729   -0.0297 C   0  0  0  0  0  0  0  0  0  0  0  0
   -1.1294   -1.4573   -0.0900 C   0  0  0  0  0  0  0  0  0  0  0  0
    0.1015   -2.0867   -0.0930 C   0  0  0  0  0  0  0  0  0  0  0  0
    1.2577   -1.3365   -0.0356 C   0  0  0  0  0  0  0  0  0  0  0  0
    1.1756    0.0488    0.0249 C   0  0  0  0  0  0  0  0  0  0  0  0
   -0.0643    0.6965    0.0286 C   0  0  0  0  0  0  0  0  0  0  0  0
   -0.0935    2.2021    0.0954 C   0  0  0  0  0  0  0  0  0  0  0  0
    2.3508    0.7389    0.0797 O   0  0  0  0  0  0  0  0  0  0  0  0
   -2.7096    1.2240   -0.8868 H   0  0  0  0  0  0  0  0  0  0  0  0
   -3.3588   -0.2011   -0.0783 H   0  0  0  0  0  0  0  0  0  0  0  0
   -2.7452    1.1461    0.8780 H   0  0  0  0  0  0  0  0  0  0  0  0
   -2.0319   -2.0489   -0.1351 H   0  0  0  0  0  0  0  0  0  0  0  0
    0.1600   -3.1636   -0.1402 H   0  0  0  0  0  0  0  0  0  0  0  0
    2.2334   -1.7952   -0.0362 H   0  0  0  0  0  0  0  0  0  0  0  0
    0.3895    2.5584    1.0081 H   0  0  0  0  0  0  0  0  0  0  0  0
    0.4217    2.6375   -0.7638 H   0  0  0  0  0  0  0  0  0  0  0  0
   -1.1102    2.5774    0.0937 H   0  0  0  0  0  0  0  0  0  0  0  0
    2.1704    1.6851    0.1184 H   0  0  0  0  0  0  0  0  0  0  0  0
  1  2  1  0  0  0  0
  2  3  4  0  0  0  0
  3  4  4  0  0  0  0
  4  5  4  0  0  0  0
  5  6  4  0  0  0  0
  2  7  4  0  0  0  0
  6  7  4  0  0  0  0
  7  8  1  0  0  0  0
  6  9  1  0  0  0  0
  1 10  1  0  0  0  0
  1 11  1  0  0  0  0
  1 12  1  0  0  0  0
  3 13  1  0  0  0  0
  4 14  1  0  0  0  0
  5 15  1  0  0  0  0
  8 16  1  0  0  0  0
  8 17  1  0  0  0  0
  8 18  1  0  0  0  0
  9 19  1  0  0  0  0
M  END
