12
 xtb: 6.7.1 (41059b4)
C           -1.97862693642921       -0.24472485731912       -0.49193414189189
C           -1.18471958063273       -0.10272475241575        0.80277560527909
C            0.12343991164440        0.66598307501496        0.64180581011196
S            1.39246631733869       -0.17348667671055       -0.40844743901786
H           -1.43377489541189       -0.84865737895265       -1.22371868353306
H           -2.93927683024894       -0.73497952982279       -0.31012860937484
H           -2.18165223957346        0.73504453500357       -0.93936953651319
H           -0.97124884312824       -1.09253067536866        1.22181471414572
H           -1.79058511788379        0.43404501438356        1.54600617578265
H           -0.05317880608325        1.66898019975716        0.23938689813391
H            0.61751059025051        0.78724107070387        1.61083757605730
H            0.80098203045053        0.05163191134649       -1.59285533827093
