12
 xtb: 6.7.1 (41059b4)
C           -1.88070102489991       -0.52957452376143       -0.29769085777396
C           -0.98937376465487        0.37789972766994        0.53908379711806
S            0.69654590933939        0.63047354570128       -0.14720791074501
C            1.40593323819308       -1.03134311854590        0.13085557855703
H           -2.87876924223587       -0.59696842144921        0.15045558815454
H           -1.98281543959404       -0.14366787402957       -1.31529688104484
H           -1.47700599436018       -1.54410882644708       -0.35777603139929
H           -0.89221653153425        0.00454949329286        1.56535746066461
H           -1.41538933556405        1.38490481215883        0.60104974456757
H            0.91307089765292       -1.79221498518903       -0.47969041961622
H            1.34820318221005       -1.30495625998356        1.18868570540124
H            2.45747755677094       -0.97929388592762       -0.16105977882230
