 xtb: 6.7.1 (41059b4)
          04082523353D

 12 11  0     0  0            999 V2000
    1.4597   -0.3504    0.4919 C   0  0  0  0  0  0  0  0  0  0  0  0
    0.6771    0.4707   -0.5240 C   0  0  0  0  0  0  0  0  0  0  0  0
   -0.8123    0.3335   -0.4381 C   0  0  0  0  0  0  0  0  0  0  0  0
   -1.4893   -0.4132    0.4134 C   0  0  0  0  0  0  0  0  0  0  0  0
    1.1952   -0.0593    1.5056 H   0  0  0  0  0  0  0  0  0  0  0  0
    2.5271   -0.1904    0.3571 H   0  0  0  0  0  0  0  0  0  0  0  0
    1.2542   -1.4110    0.3676 H   0  0  0  0  0  0  0  0  0  0  0  0
    0.9859    0.1876   -1.5358 H   0  0  0  0  0  0  0  0  0  0  0  0
    0.9274    1.5303   -0.4055 H   0  0  0  0  0  0  0  0  0  0  0  0
   -1.3485    0.9266   -1.1699 H   0  0  0  0  0  0  0  0  0  0  0  0
   -2.5657   -0.4470    0.3979 H   0  0  0  0  0  0  0  0  0  0  0  0
   -1.0110   -1.0217    1.1608 H   0  0  0  0  0  0  0  0  0  0  0  0
  1  2  1  0  0  0  0
  2  3  1  0  0  0  0
  3  4  2  0  0  0  0
  1  5  1  0  0  0  0
  1  6  1  0  0  0  0
  1  7  1  0  0  0  0
  2  8  1  0  0  0  0
  2  9  1  0  0  0  0
  3 10  1  0  0  0  0
  4 11  1  0  0  0  0
  4 12  1  0  0  0  0
M  END
