 xtb: 6.7.1 (41059b4)
          04082522263D

 14 13  0     0  0            999 V2000
   -2.1531    0.3560   -0.6832 C   0  0  0  0  0  0  0  0  0  0  0  0
   -1.3266    0.4709    0.5992 C   0  0  0  0  0  0  0  0  0  0  0  0
    0.0194   -0.1809    0.3867 C   0  0  0  0  0  0  0  0  0  0  0  0
    0.2924   -1.3213    0.6509 O   0  0  0  0  0  0  0  0  0  0  0  0
    0.8836    0.6748   -0.1746 O   0  0  0  0  0  0  0  0  0  0  0  0
    2.1756    0.1623   -0.4684 C   0  0  0  0  0  0  0  0  0  0  0  0
   -2.2842   -0.6888   -0.9547 H   0  0  0  0  0  0  0  0  0  0  0  0
   -3.1331    0.8027   -0.5360 H   0  0  0  0  0  0  0  0  0  0  0  0
   -1.6549    0.8705   -1.5014 H   0  0  0  0  0  0  0  0  0  0  0  0
   -1.8337   -0.0416    1.4166 H   0  0  0  0  0  0  0  0  0  0  0  0
   -1.1783    1.5201    0.8535 H   0  0  0  0  0  0  0  0  0  0  0  0
    2.7050    0.9519   -0.9955 H   0  0  0  0  0  0  0  0  0  0  0  0
    2.0968   -0.7316   -1.0903 H   0  0  0  0  0  0  0  0  0  0  0  0
    2.6976   -0.0981    0.4548 H   0  0  0  0  0  0  0  0  0  0  0  0
  1  2  1  0  0  0  0
  2  3  1  0  0  0  0
  3  4  2  0  0  0  0
  3  5  1  0  0  0  0
  5  6  1  0  0  0  0
  1  7  1  0  0  0  0
  1  8  1  0  0  0  0
  1  9  1  0  0  0  0
  2 10  1  0  0  0  0
  2 11  1  0  0  0  0
  6 12  1  0  0  0  0
  6 13  1  0  0  0  0
  6 14  1  0  0  0  0
M  END
