11
CONF1
C -2.7247057933 -0.9186326744 -0.1642524512
C -2.3118271540 0.4392933877 0.3916953673
C -1.1273022178 1.0675588908 -0.3111819145
I 0.7390650004 -0.0518867045 -0.0044181473
H -1.9234057010 -1.6520062595 -0.0360521898
H -3.6146313135 -1.2946594221 0.3476129584
H -2.9517851286 -0.8505572638 -1.2334397496
H -2.1089966815 0.3681541164 1.4657970740
H -3.1451055857 1.1497005407 0.2784023391
H -0.8956866261 2.0640486677 0.0623887822
H -1.2499949943 1.0940719397 -1.3945030691
11
CONF2
C -3.5980852953 -0.6004163555 -0.2268286977
C -2.1511551666 -0.6701694409 0.2722193081
C -1.2547415064 0.1863924127 -0.5974848333
I 0.8314905394 0.1280359177 0.0655678364
H -4.2503655154 -1.2172121699 0.3978154302
H -3.9775155792 0.4259554282 -0.1981384698
H -3.6794674963 -0.9618635304 -1.2569145084
H -1.7978192595 -1.7063143176 0.2588300350
H -2.0943460914 -0.3279913934 1.3106525042
H -1.5261483139 1.2418611109 -0.5658509516
H -1.2262600789 -0.1550909125 -1.6324746859
11
CONF3
C -2.7136537728 -0.9240201197 -0.1651790066
C -2.3043586806 0.4525991179 0.3909056431
C -1.1205304817 1.0857477119 -0.3070799666
I 0.7327910084 -0.0510493952 0.0116161939
H -2.6947391461 -1.6934265599 0.6097014626
H -3.7219071463 -0.9024981625 -0.5864679867
H -2.0305191507 -1.2509200041 -0.9545177532
H -2.1023758051 0.3981422535 1.4648719993
H -3.1342272120 1.1648491859 0.2761095502
H -0.8877834983 2.0804716709 0.0713669429
H -1.2345130008 1.1142619914 -1.3914605173
11
CONF4
C -3.3046226358 -0.8883114882 -0.2850673630
C -2.3068592391 0.0086027661 0.4477866092
C -1.2483942609 0.5749664008 -0.5044285924
I 0.8076712580 0.0431265264 0.0467696926
H -3.8180098072 -0.3429679794 -1.0838105128
H -2.7947197800 -1.7465197970 -0.7350777106
H -4.0650722659 -1.2704902854 0.4020653665
H -1.8370311181 -0.5565300179 1.2564852679
H -2.8328463979 0.8424018655 0.9265316569
H -1.2332366879 1.6629121378 -0.5393235373
H -1.3484915384 0.1833126308 -1.5165835248
