 xtb: 6.7.1 (41059b4)
          04092505203D

 19 19  0     0  0            999 V2000
    2.1746   -1.1796   -0.1549 C   0  0  0  0  0  0  0  0  0  0  0  0
    1.4153    0.1289   -0.0923 C   0  0  0  0  0  0  0  0  0  0  0  0
    1.9610    1.2152   -0.1431 O   0  0  0  0  0  0  0  0  0  0  0  0
    0.0766    0.0163    0.0292 N   0  0  0  0  0  0  0  0  0  0  0  0
   -0.6971   -1.2078    0.0532 C   0  0  0  0  0  0  0  0  0  0  0  0
   -2.1275   -0.7393    0.3241 C   0  0  0  0  0  0  0  0  0  0  0  0
   -2.1551    0.6545   -0.3007 C   0  0  0  0  0  0  0  0  0  0  0  0
   -0.7743    1.1951    0.0512 C   0  0  0  0  0  0  0  0  0  0  0  0
    3.2302   -0.9620   -0.2888 H   0  0  0  0  0  0  0  0  0  0  0  0
    1.8220   -1.7864   -0.9860 H   0  0  0  0  0  0  0  0  0  0  0  0
    2.0398   -1.7397    0.7680 H   0  0  0  0  0  0  0  0  0  0  0  0
   -0.6330   -1.7196   -0.9159 H   0  0  0  0  0  0  0  0  0  0  0  0
   -0.3351   -1.8915    0.8259 H   0  0  0  0  0  0  0  0  0  0  0  0
   -2.8686   -1.4119   -0.1027 H   0  0  0  0  0  0  0  0  0  0  0  0
   -2.2991   -0.6668    1.3986 H   0  0  0  0  0  0  0  0  0  0  0  0
   -2.2656    0.5783   -1.3830 H   0  0  0  0  0  0  0  0  0  0  0  0
   -2.9566    1.2766    0.0907 H   0  0  0  0  0  0  0  0  0  0  0  0
   -0.3933    1.9357   -0.6543 H   0  0  0  0  0  0  0  0  0  0  0  0
   -0.7641    1.6416    1.0525 H   0  0  0  0  0  0  0  0  0  0  0  0
  1  2  1  0  0  0  0
  2  3  2  0  0  0  0
  2  4  4  0  0  0  0
  4  5  1  0  0  0  0
  5  6  1  0  0  0  0
  6  7  1  0  0  0  0
  4  8  1  0  0  0  0
  7  8  1  0  0  0  0
  1  9  1  0  0  0  0
  1 10  1  0  0  0  0
  1 11  1  0  0  0  0
  5 12  1  0  0  0  0
  5 13  1  0  0  0  0
  6 14  1  0  0  0  0
  6 15  1  0  0  0  0
  7 16  1  0  0  0  0
  7 17  1  0  0  0  0
  8 18  1  0  0  0  0
  8 19  1  0  0  0  0
M  END
