19
 xtb: 6.7.1 (41059b4)
C           -2.59512110327697        0.58028796360718       -0.00004979012177
C           -1.23437401701563       -0.06737250842085        0.00002238187415
C           -1.13927859575151       -1.46084822062313        0.00003013285108
C            0.10023670587118       -2.09172319454510        0.00006876743452
C            1.26605104550810       -1.34196213014250       -0.00000461718431
C            1.17647212755110        0.04712602527737       -0.00011147254327
C           -0.06171219596060        0.70686950781776        0.00005150193942
C           -0.08207127889170        2.21338476319897        0.00000254699880
O            2.36100710290577        0.73662549810216       -0.00036449369870
H           -2.74475366401203        1.21162669909264        0.88302781392434
H           -2.74460646822115        1.21169979854760       -0.88309959728693
H           -3.37874409796312       -0.18032284979035       -0.00011276751571
H           -2.04817598920046       -2.05429488570522        0.00000181513275
H            0.15822812595456       -3.17552705997935        0.00009936637835
H            2.24617072678777       -1.80589187318902       -0.00006167093310
H            0.41893990865928        2.62666160383078        0.88645969009783
H            0.41357026694326        2.62658074165172       -0.88952117276874
H           -1.09852416779072        2.60523362310813        0.00314727603952
H            2.18073794304351        1.68274880829055       -0.00125254036409
