13
CONF2
C -2.4199847084 -0.0762182163 -0.0000068951
C -1.8453764366 -1.3426968726 -0.0000062239
C -0.4600745160 -1.4699908612 -0.0000027021
C 0.3436729595 -0.3381544066 0.0000001418
C -0.2244087272 0.9409361536 -0.0000000336
C -1.6150857013 1.0565863590 -0.0000037231
O 0.6054976127 2.0188947447 0.0000033926
Cl 2.0827213242 -0.5040780003 0.0000048746
H -3.4988079728 0.0363567722 -0.0000098277
H -2.4666660876 -2.2310260541 -0.0000082495
H 0.0093078434 -2.4470598418 -0.0000017311
H -2.0638764557 2.0470228633 -0.0000041391
H 0.0717530353 2.8216783646 0.0000047098
