 xtb: 6.7.1 (41059b4)
          04092501453D

  8  7  0     0  0            999 V2000
   -0.4861    0.5804   -0.0002 C   0  0  0  0  0  0  0  0  0  0  0  0
    0.4862   -0.5804   -0.0001 C   0  0  0  0  0  0  0  0  0  0  0  0
    2.1523    0.0562   -0.0002 Cl  0  0  0  0  0  0  0  0  0  0  0  0
   -2.1522   -0.0563   -0.0001 Cl  0  0  0  0  0  0  0  0  0  0  0  0
   -0.3713    1.1951   -0.8928 H   0  0  0  0  0  0  0  0  0  0  0  0
   -0.3712    1.1952    0.8924 H   0  0  0  0  0  0  0  0  0  0  0  0
    0.3713   -1.1952    0.8925 H   0  0  0  0  0  0  0  0  0  0  0  0
    0.3713   -1.1953   -0.8927 H   0  0  0  0  0  0  0  0  0  0  0  0
  1  2  1  0  0  0  0
  2  3  1  0  0  0  0
  1  4  1  0  0  0  0
  1  5  1  0  0  0  0
  1  6  1  0  0  0  0
  2  7  1  0  0  0  0
  2  8  1  0  0  0  0
M  END
