 xtb: 6.7.1 (41059b4)
          04082522383D

 14 13  0     0  0            999 V2000
   -2.4707    0.0792    0.3787 C   0  0  0  0  0  0  0  0  0  0  0  0
   -1.2319    0.6758   -0.2736 C   0  0  0  0  0  0  0  0  0  0  0  0
    0.0297   -0.0290    0.1695 C   0  0  0  0  0  0  0  0  0  0  0  0
    0.0839   -1.0275    0.8344 O   0  0  0  0  0  0  0  0  0  0  0  0
    1.1159    0.6116   -0.2911 O   0  0  0  0  0  0  0  0  0  0  0  0
    2.3712    0.0367    0.0454 C   0  0  0  0  0  0  0  0  0  0  0  0
   -2.5390   -0.9814    0.1523 H   0  0  0  0  0  0  0  0  0  0  0  0
   -2.4193    0.1893    1.4587 H   0  0  0  0  0  0  0  0  0  0  0  0
   -3.3663    0.5770    0.0164 H   0  0  0  0  0  0  0  0  0  0  0  0
   -1.1295    1.7361   -0.0358 H   0  0  0  0  0  0  0  0  0  0  0  0
   -1.2892    0.5903   -1.3614 H   0  0  0  0  0  0  0  0  0  0  0  0
    2.4896   -0.0064    1.1300 H   0  0  0  0  0  0  0  0  0  0  0  0
    3.1282    0.6787   -0.3970 H   0  0  0  0  0  0  0  0  0  0  0  0
    2.4440   -0.9762   -0.3557 H   0  0  0  0  0  0  0  0  0  0  0  0
  1  2  1  0  0  0  0
  2  3  1  0  0  0  0
  3  4  2  0  0  0  0
  3  5  1  0  0  0  0
  5  6  1  0  0  0  0
  1  7  1  0  0  0  0
  1  8  1  0  0  0  0
  1  9  1  0  0  0  0
  2 10  1  0  0  0  0
  2 11  1  0  0  0  0
  6 12  1  0  0  0  0
  6 13  1  0  0  0  0
  6 14  1  0  0  0  0
M  END
