 xtb: 6.7.1 (41059b4)
          04092505273D

 12 12  0     0  0            999 V2000
    1.0396    1.3511    0.0002 C   0  0  0  0  0  0  0  0  0  0  0  0
    0.3560    0.1935    0.0001 C   0  0  0  0  0  0  0  0  0  0  0  0
    1.0453   -1.0908   -0.0001 C   0  0  0  0  0  0  0  0  0  0  0  0
    0.5193   -2.1734   -0.0001 O   0  0  0  0  0  0  0  0  0  0  0  0
    2.4303   -0.9538   -0.0002 N   0  0  0  0  0  0  0  0  0  0  0  0
    3.1703    0.2056   -0.0001 C   0  0  0  0  0  0  0  0  0  0  0  0
    4.3725    0.2315   -0.0002 O   0  0  0  0  0  0  0  0  0  0  0  0
    2.4024    1.3566    0.0001 N   0  0  0  0  0  0  0  0  0  0  0  0
   -1.7324    0.1165    0.0003 I   0  0  0  0  0  0  0  0  0  0  0  0
    0.5512    2.3142    0.0004 H   0  0  0  0  0  0  0  0  0  0  0  0
    2.9640   -1.8170   -0.0003 H   0  0  0  0  0  0  0  0  0  0  0  0
    2.9127    2.2290    0.0001 H   0  0  0  0  0  0  0  0  0  0  0  0
  1  2  2  0  0  0  0
  2  3  1  0  0  0  0
  3  4  2  0  0  0  0
  3  5  1  0  0  0  0
  5  6  1  0  0  0  0
  6  7  2  0  0  0  0
  1  8  1  0  0  0  0
  6  8  1  0  0  0  0
  2  9  1  0  0  0  0
  1 10  1  0  0  0  0
  5 11  1  0  0  0  0
  8 12  1  0  0  0  0
M  END
