12
 xtb: 6.7.1 (41059b4)
C           -2.18274786853010        0.27729457459983       -0.13379350100752
C           -0.92541377470008       -0.39683110955658        0.39822522398887
S            0.56112543981277        0.37368945853770       -0.35967346878132
C            1.84808520491140       -0.62970376809520        0.46194489097220
H           -2.18999074113093        1.34427679801816        0.10651232345727
H           -2.25792413576694        0.17100170015088       -1.21974548721643
H           -3.07068036612665       -0.17869333294770        0.31503842859951
H           -0.92824907386231       -1.46604455874450        0.15719399217605
H           -0.86022335757840       -0.28944504346889        1.48704531313280
H            1.74133103679452       -1.68828060362638        0.20727450749610
H            1.80958688550509       -0.50297002885557        1.54786745335889
H            2.81609036926522       -0.27588100880802        0.09975465636735
