12
 xtb: 6.7.1 (41059b4)
C           -2.22874451928589        0.12652615976521        0.14377806654446
C           -0.91813223556079       -0.47037037306085       -0.35084684862751
S            0.46889275415230        0.12470820089141        0.69764663202750
C            1.84252211188393       -0.76331967260786       -0.11529371819469
H           -2.20257658753565        1.21936435326759        0.10555799134184
H           -3.05795328885960       -0.21614646909404       -0.48278020399453
H           -2.43366055147543       -0.17467065123803        1.17504121085734
H           -0.72576350245560       -0.17645420013078       -1.38893978887578
H           -0.94915089635775       -1.56495527269344       -0.30376326419007
H            1.93751394847451       -0.46355852460463       -1.16334341429438
H            1.70164401495406       -1.84651732590346       -0.05084632229323
H            2.76119984588318       -0.49552541409985        0.41193688446013
