 xtb: 6.7.1 (41059b4)
          04092505313D

 19 19  0     0  0            999 V2000
    2.3935    0.0001    0.0415 C   0  0  0  0  0  0  0  0  0  0  0  0
    0.9854    0.0000   -0.2851 N   0  0  0  0  0  0  0  0  0  0  0  0
    0.3162    1.1861    0.2179 C   0  0  0  0  0  0  0  0  0  0  0  0
   -1.1381    1.1883   -0.2432 C   0  0  0  0  0  0  0  0  0  0  0  0
   -1.7904   -0.0001    0.2737 N   0  0  0  0  0  0  0  0  0  0  0  0
   -1.1380   -1.1883   -0.2432 C   0  0  0  0  0  0  0  0  0  0  0  0
    0.3163   -1.1861    0.2179 C   0  0  0  0  0  0  0  0  0  0  0  0
    2.8590   -0.8848   -0.3907 H   0  0  0  0  0  0  0  0  0  0  0  0
    2.5803    0.0001    1.1276 H   0  0  0  0  0  0  0  0  0  0  0  0
    2.8589    0.8850   -0.3907 H   0  0  0  0  0  0  0  0  0  0  0  0
    0.3410    1.2246    1.3216 H   0  0  0  0  0  0  0  0  0  0  0  0
    0.8279    2.0681   -0.1747 H   0  0  0  0  0  0  0  0  0  0  0  0
   -1.6494    2.0702    0.1490 H   0  0  0  0  0  0  0  0  0  0  0  0
   -1.1551    1.2270   -1.3463 H   0  0  0  0  0  0  0  0  0  0  0  0
   -2.7735   -0.0001    0.0186 H   0  0  0  0  0  0  0  0  0  0  0  0
   -1.6493   -2.0703    0.1489 H   0  0  0  0  0  0  0  0  0  0  0  0
   -1.1551   -1.2270   -1.3464 H   0  0  0  0  0  0  0  0  0  0  0  0
    0.3411   -1.2246    1.3215 H   0  0  0  0  0  0  0  0  0  0  0  0
    0.8280   -2.0680   -0.1748 H   0  0  0  0  0  0  0  0  0  0  0  0
  1  2  1  0  0  0  0
  2  3  1  0  0  0  0
  3  4  1  0  0  0  0
  4  5  1  0  0  0  0
  5  6  1  0  0  0  0
  2  7  1  0  0  0  0
  6  7  1  0  0  0  0
  1  8  1  0  0  0  0
  1  9  1  0  0  0  0
  1 10  1  0  0  0  0
  3 11  1  0  0  0  0
  3 12  1  0  0  0  0
  4 13  1  0  0  0  0
  4 14  1  0  0  0  0
  5 15  1  0  0  0  0
  6 16  1  0  0  0  0
  6 17  1  0  0  0  0
  7 18  1  0  0  0  0
  7 19  1  0  0  0  0
M  END
