 xtb: 6.7.1 (41059b4)
          04082523323D

 15 15  0     0  0            999 V2000
   -0.7305   -1.1916    0.2452 C   0  0  0  0  0  0  0  0  0  0  0  0
    0.7201   -1.1590   -0.2391 C   0  0  0  0  0  0  0  0  0  0  0  0
    1.3831    0.0004    0.2111 O   0  0  0  0  0  0  0  0  0  0  0  0
    0.7196    1.1594   -0.2392 C   0  0  0  0  0  0  0  0  0  0  0  0
   -0.7311    1.1913    0.2452 C   0  0  0  0  0  0  0  0  0  0  0  0
   -1.3962   -0.0003   -0.2547 N   0  0  0  0  0  0  0  0  0  0  0  0
   -0.7347   -1.2420    1.3484 H   0  0  0  0  0  0  0  0  0  0  0  0
   -1.2342   -2.0745   -0.1525 H   0  0  0  0  0  0  0  0  0  0  0  0
    1.2827   -2.0064    0.1561 H   0  0  0  0  0  0  0  0  0  0  0  0
    0.7296   -1.1898   -1.3388 H   0  0  0  0  0  0  0  0  0  0  0  0
    1.2817    2.0071    0.1560 H   0  0  0  0  0  0  0  0  0  0  0  0
    0.7290    1.1902   -1.3389 H   0  0  0  0  0  0  0  0  0  0  0  0
   -0.7353    1.2418    1.3483 H   0  0  0  0  0  0  0  0  0  0  0  0
   -1.2352    2.0740   -0.1526 H   0  0  0  0  0  0  0  0  0  0  0  0
   -2.3747   -0.0006    0.0160 H   0  0  0  0  0  0  0  0  0  0  0  0
  1  2  1  0  0  0  0
  2  3  1  0  0  0  0
  3  4  1  0  0  0  0
  4  5  1  0  0  0  0
  1  6  1  0  0  0  0
  5  6  1  0  0  0  0
  1  7  1  0  0  0  0
  1  8  1  0  0  0  0
  2  9  1  0  0  0  0
  2 10  1  0  0  0  0
  4 11  1  0  0  0  0
  4 12  1  0  0  0  0
  5 13  1  0  0  0  0
  5 14  1  0  0  0  0
  6 15  1  0  0  0  0
M  END
