 xtb: 6.7.1 (41059b4)
          04092504213D

  6  5  0     0  0            999 V2000
    0.0001    1.8044    0.0001 C   0  0  0  0  0  0  0  0  0  0  0  0
    0.0000    0.4839   -0.0000 C   0  0  0  0  0  0  0  0  0  0  0  0
    1.4413   -0.4547    0.0000 Cl  0  0  0  0  0  0  0  0  0  0  0  0
   -1.4413   -0.4546   -0.0000 Cl  0  0  0  0  0  0  0  0  0  0  0  0
   -0.9215    2.3568   -0.0000 H   0  0  0  0  0  0  0  0  0  0  0  0
    0.9217    2.3567    0.0000 H   0  0  0  0  0  0  0  0  0  0  0  0
  1  2  2  0  0  0  0
  2  3  1  0  0  0  0
  2  4  1  0  0  0  0
  1  5  1  0  0  0  0
  1  6  1  0  0  0  0
M  END
