 xtb: 6.7.1 (41059b4)
          04092502303D

 20 20  0     0  0            999 V2000
    0.8374    1.4055   -0.5654 C   0  0  0  0  0  0  0  0  0  0  0  0
    1.5887    0.1627   -0.0654 C   0  0  0  0  0  0  0  0  0  0  0  0
    2.5422    0.0877   -0.6108 H   0  0  0  0  0  0  0  0  0  0  0  0
    0.7643   -1.1180   -0.3410 C   0  0  0  0  0  0  0  0  0  0  0  0
    1.1998   -1.9523    0.2252 H   0  0  0  0  0  0  0  0  0  0  0  0
   -0.6848   -0.9086    0.1440 C   0  0  0  0  0  0  0  0  0  0  0  0
   -1.3025   -1.7648   -0.1458 H   0  0  0  0  0  0  0  0  0  0  0  0
   -1.2791    0.3834   -0.4639 C   0  0  0  0  0  0  0  0  0  0  0  0
   -1.3302    0.3254   -1.5650 H   0  0  0  0  0  0  0  0  0  0  0  0
   -0.4738    1.4827   -0.0742 O   0  0  0  0  0  0  0  0  0  0  0  0
   -2.5611    0.5929   -0.0183 O   0  0  0  0  0  0  0  0  0  0  0  0
   -0.7531   -0.8151    1.5430 O   0  0  0  0  0  0  0  0  0  0  0  0
    0.8418   -1.5124   -1.6846 O   0  0  0  0  0  0  0  0  0  0  0  0
    1.8182    0.3375    1.3163 O   0  0  0  0  0  0  0  0  0  0  0  0
    0.8391    1.4128   -1.6666 H   0  0  0  0  0  0  0  0  0  0  0  0
    1.3402    2.3005   -0.1964 H   0  0  0  0  0  0  0  0  0  0  0  0
   -2.5573    0.4845    0.9454 H   0  0  0  0  0  0  0  0  0  0  0  0
   -0.1763   -0.0795    1.8120 H   0  0  0  0  0  0  0  0  0  0  0  0
    0.4080   -0.8597   -2.2456 H   0  0  0  0  0  0  0  0  0  0  0  0
    2.3182   -0.4132    1.6569 H   0  0  0  0  0  0  0  0  0  0  0  0
  1  2  1  0  0  0  0
  2  3  1  0  0  0  0
  2  4  1  0  0  0  0
  4  5  1  0  0  0  0
  4  6  1  0  0  0  0
  6  7  1  0  0  0  0
  6  8  1  0  0  0  0
  8  9  1  0  0  0  0
  1 10  1  0  0  0  0
  8 10  1  0  0  0  0
  8 11  1  0  0  0  0
  6 12  1  0  0  0  0
  4 13  1  0  0  0  0
  2 14  1  0  0  0  0
  1 15  1  0  0  0  0
  1 16  1  0  0  0  0
 11 17  1  0  0  0  0
 12 18  1  0  0  0  0
 13 19  1  0  0  0  0
 14 20  1  0  0  0  0
M  END
