20
 xtb: 6.7.1 (41059b4)
C            0.64530663554999        1.68613711486243       -0.04707094489727
C            1.42039306170134        0.38657218300992       -0.27444689719510
H            1.63522776706131        0.25133921175315       -1.34599606762256
C            0.57413893369138       -0.78289860351107        0.19326875104571
H            0.44555325391848       -0.69557441294135        1.28646137046905
C           -0.79869902964889       -0.72574131126870       -0.48575830710836
H           -0.65548190549740       -0.88424393222334       -1.56114735106293
C           -1.47127791990595        0.63292662579599       -0.29696605135132
H           -2.36442520016390        0.71414603810292       -0.93031719802182
O           -0.62656826480828        1.68134548725765       -0.71707128428466
O           -1.82084646844526        0.72117250879106        1.07934147711792
O           -1.62845151638403       -1.79467221450752       -0.03538195866090
O            1.22780933397151       -1.99860481350795       -0.14169534404800
O            2.62298574755431        0.40948121205445        0.49425673039324
H            1.19221858482879        2.53874024979804       -0.45910315879041
H            0.51565638109294        1.83866583914319        1.03282827792810
H           -2.39404761879301        1.48755472942879        1.19660675398007
H           -1.94308923591917       -1.54273851350047        0.84399790886568
H            0.58529486578528       -2.70325658089079        0.01391022188264
H            3.29081744880745        0.89640631111513        0.00086949284477
