19
 xtb: 6.7.1 (41059b4)
C           -2.56161355465454        0.62431851558311        0.00005947796428
C           -1.22294190674781       -0.06068586580651        0.00005347079555
C           -1.15101079031772       -1.45534392424300        0.00004828732102
C            0.08004329664690       -2.09961884343218       -0.00002309625471
C            1.25188561067995       -1.35597945029927       -0.00002884371740
C            1.18306177465105        0.03680421552185       -0.00000185834797
C           -0.04660366218006        0.70723660617693       -0.00001995663478
C           -0.10363321941358        2.20961373881490       -0.00014219845134
O            2.32274170832728        0.80381765286574        0.00002685351134
H           -2.68349368780904        1.26607048562820       -0.88016154135816
H           -3.37338941643622       -0.10625670227395        0.00112473442589
H           -2.68266573987729        1.26774878315958        0.87915678827295
H           -2.06791427945688       -2.03653564008967        0.00009250862434
H            0.13043515098089       -3.18370057291244       -0.00005669713626
H            2.21989949759815       -1.85181960685884       -0.00005408864915
H           -0.64026113161298        2.58219104976366       -0.88030305087743
H           -0.63944712946073        2.58240705281359        0.88042536280853
H            0.89415431645730        2.64633489014635       -0.00064327272003
H            3.08692804023787        0.21759362602473        0.00014848481713
