9
 xtb: 6.7.1 (41059b4)
C            1.26623887250042       -0.24127708701890       -0.00092890293334
C           -0.01638450229600        0.56838862291825       -0.04919131303181
O           -1.19353654001347       -0.24672494278253        0.03842949205061
H            1.34350243494290       -0.79695801027636        0.94054660284948
H            1.31221460380410       -0.95173595799037       -0.83405202265323
H            2.13918448143888        0.41513809374252       -0.07329345366676
H           -0.06634755235392        1.13793790708264       -0.98722909594719
H           -0.03710090985462        1.29003390136402        0.77899737126658
H           -0.91661329903385       -1.16330655088173        0.12574534338792
