 xtb: 6.7.1 (41059b4)
          04082522383D

 14 13  0     0  0            999 V2000
   -2.4753    0.0031   -0.2790 C   0  0  0  0  0  0  0  0  0  0  0  0
   -1.2257    0.7553    0.1561 C   0  0  0  0  0  0  0  0  0  0  0  0
    0.0319   -0.0309   -0.1358 C   0  0  0  0  0  0  0  0  0  0  0  0
    0.0804   -1.1698   -0.5137 O   0  0  0  0  0  0  0  0  0  0  0  0
    1.1218    0.7186    0.0930 O   0  0  0  0  0  0  0  0  0  0  0  0
    2.3746    0.0860   -0.1300 C   0  0  0  0  0  0  0  0  0  0  0  0
   -2.5178   -0.9662    0.2103 H   0  0  0  0  0  0  0  0  0  0  0  0
   -3.3667    0.5691   -0.0216 H   0  0  0  0  0  0  0  0  0  0  0  0
   -2.4617   -0.1630   -1.3529 H   0  0  0  0  0  0  0  0  0  0  0  0
   -1.2472    0.9492    1.2312 H   0  0  0  0  0  0  0  0  0  0  0  0
   -1.1473    1.7205   -0.3470 H   0  0  0  0  0  0  0  0  0  0  0  0
    2.4887   -0.7740    0.5330 H   0  0  0  0  0  0  0  0  0  0  0  0
    3.1347    0.8339    0.0799 H   0  0  0  0  0  0  0  0  0  0  0  0
    2.4474   -0.2567   -1.1642 H   0  0  0  0  0  0  0  0  0  0  0  0
  1  2  1  0  0  0  0
  2  3  1  0  0  0  0
  3  4  2  0  0  0  0
  3  5  1  0  0  0  0
  5  6  1  0  0  0  0
  1  7  1  0  0  0  0
  1  8  1  0  0  0  0
  1  9  1  0  0  0  0
  2 10  1  0  0  0  0
  2 11  1  0  0  0  0
  6 12  1  0  0  0  0
  6 13  1  0  0  0  0
  6 14  1  0  0  0  0
M  END
