20
 xtb: 6.7.1 (41059b4)
C            0.57809129329351        1.72949146133931       -0.04302546024659
C            1.37833687094261        0.44530672203557       -0.25458558443350
H            1.60219612063374        0.31101339780071       -1.32422630537739
C            0.55681802899327       -0.74120504789778        0.21899820494382
H            0.39511894957224       -0.65677135256648        1.30472239264114
C           -0.78888495410880       -0.74087867910297       -0.49282124684235
H           -0.60055207483392       -0.81634898641272       -1.57752721992379
C           -1.50245632194198        0.59150982839891       -0.26628940876336
H           -2.40604519158395        0.64804044024180       -0.88721062585828
O           -0.68034671355577        1.66001235123528       -0.72846702558447
O           -1.81051124440566        0.70701993346017        1.10238725172695
O           -1.62557514831098       -1.79790307001724       -0.05744823349487
O            1.18604286919962       -1.98552390394833       -0.09846161025721
O            2.58556389024562        0.44603353804933        0.52011896830154
H            1.09981084865188        2.59394818938552       -0.46488405873508
H            0.43273862926529        1.89226169229119        1.03355734471791
H           -2.38517357328980        1.47385657011931        1.20995861544096
H           -1.08642675568010       -2.59873766375292       -0.08046636427954
H            2.04280625837702       -1.98721420316544        0.34496744726946
H            3.23003617966319        1.01364215745430        0.08427605732093
