15
 xtb: 6.7.1 (41059b4)
C           -0.72916290343868       -1.20050288588504        0.23905560075756
C            0.71447769696181       -1.17283996497966       -0.23951529239096
O            1.38596936090610        0.00035872147431        0.22130247551322
C            0.71390436655887        1.17321459699456       -0.23955197823165
C           -0.72975722530903        1.20019408153535        0.23900059720750
N           -1.40849004509938       -0.00033415394752       -0.26297026139925
H           -0.73130906667759       -1.26304023323673        1.34420612077377
H           -1.22839968974843       -2.09332018297931       -0.15683376970776
H            1.27423323836496       -2.02422888624894        0.15923758805723
H            0.73792571449928       -1.20955362932839       -1.34163064512280
H            1.27323338388677        2.02488927138122        0.15918949423330
H            0.73735333657544        1.20991722255979       -1.34166753548471
H           -0.73195369165772        1.26279159671244        1.34414664965082
H           -1.22942515042663        2.09274346160999       -0.15694860767999
H           -2.37452898869898       -0.00056388464479        0.04351267055370
