 xtb: 6.7.1 (41059b4)
          04092505313D

 19 19  0     0  0            999 V2000
    1.9504    0.0000    0.7064 C   0  0  0  0  0  0  0  0  0  0  0  0
    1.0976   -0.0000   -0.4625 N   0  0  0  0  0  0  0  0  0  0  0  0
    0.2717    1.1856   -0.5974 C   0  0  0  0  0  0  0  0  0  0  0  0
   -0.9377    1.1965    0.3467 C   0  0  0  0  0  0  0  0  0  0  0  0
   -1.7227   -0.0000    0.0970 N   0  0  0  0  0  0  0  0  0  0  0  0
   -0.9376   -1.1965    0.3468 C   0  0  0  0  0  0  0  0  0  0  0  0
    0.2717   -1.1857   -0.5974 C   0  0  0  0  0  0  0  0  0  0  0  0
    2.5869    0.8839    0.6702 H   0  0  0  0  0  0  0  0  0  0  0  0
    2.5869   -0.8839    0.6703 H   0  0  0  0  0  0  0  0  0  0  0  0
    1.4161    0.0000    1.6671 H   0  0  0  0  0  0  0  0  0  0  0  0
    0.8897    2.0697   -0.4288 H   0  0  0  0  0  0  0  0  0  0  0  0
   -0.0974    1.2049   -1.6269 H   0  0  0  0  0  0  0  0  0  0  0  0
   -0.5904    1.2610    1.3942 H   0  0  0  0  0  0  0  0  0  0  0  0
   -1.5579    2.0712    0.1394 H   0  0  0  0  0  0  0  0  0  0  0  0
   -2.5610   -0.0000    0.6703 H   0  0  0  0  0  0  0  0  0  0  0  0
   -0.5903   -1.2610    1.3943 H   0  0  0  0  0  0  0  0  0  0  0  0
   -1.5578   -2.0713    0.1395 H   0  0  0  0  0  0  0  0  0  0  0  0
    0.8898   -2.0697   -0.4287 H   0  0  0  0  0  0  0  0  0  0  0  0
   -0.0974   -1.2050   -1.6268 H   0  0  0  0  0  0  0  0  0  0  0  0
  1  2  1  0  0  0  0
  2  3  1  0  0  0  0
  3  4  1  0  0  0  0
  4  5  1  0  0  0  0
  5  6  1  0  0  0  0
  2  7  1  0  0  0  0
  6  7  1  0  0  0  0
  1  8  1  0  0  0  0
  1  9  1  0  0  0  0
  1 10  1  0  0  0  0
  3 11  1  0  0  0  0
  3 12  1  0  0  0  0
  4 13  1  0  0  0  0
  4 14  1  0  0  0  0
  5 15  1  0  0  0  0
  6 16  1  0  0  0  0
  6 17  1  0  0  0  0
  7 18  1  0  0  0  0
  7 19  1  0  0  0  0
M  END
