19
CONF4
C 1.9421032945 0.0000421926 0.7088457088
N 1.1053965197 -0.0000014412 -0.4873212032
C 0.2676345703 1.1999236565 -0.6055284308
C -0.9331970910 1.2058845664 0.3434628759
N -1.7324315652 -0.0000529279 0.0907497239
C -0.9331481319 -1.2059485474 0.3435050009
C 0.2676850532 -1.1999664503 -0.6054840168
H 2.5881553671 0.8851079705 0.6941782469
H 2.5881463041 -0.8850314875 0.6942504699
H 1.3974789508 0.0000835253 1.6699940177
H 0.8923083351 2.0847479261 -0.4340726640
H -0.1099017663 1.2455572557 -1.6362411408
H -0.5821587268 1.2712797300 1.3918918759
H -1.5491137661 2.0917598021 0.1467237520
H -2.5496802441 -0.0000594899 0.6900992318
H -0.5821086646 -1.2712949499 1.3919367372
H -1.5490276375 -2.0918557778 0.1467924068
H 0.8923958796 -2.0847578437 -0.4339944023
H -0.1098460640 -1.2456545598 -1.6361964981
