 xtb: 6.7.1 (41059b4)
          04092502303D

 20 20  0     0  0            999 V2000
    0.5963    1.7042   -0.0005 C   0  0  0  0  0  0  0  0  0  0  0  0
    1.3993    0.4238   -0.2562 C   0  0  0  0  0  0  0  0  0  0  0  0
    1.6062    0.3390   -1.3399 H   0  0  0  0  0  0  0  0  0  0  0  0
    0.5515   -0.7803    0.1714 C   0  0  0  0  0  0  0  0  0  0  0  0
    0.3923   -0.7417    1.2554 H   0  0  0  0  0  0  0  0  0  0  0  0
   -0.8060   -0.7420   -0.5387 C   0  0  0  0  0  0  0  0  0  0  0  0
   -0.6543   -0.8679   -1.6242 H   0  0  0  0  0  0  0  0  0  0  0  0
   -1.4726    0.6302   -0.2861 C   0  0  0  0  0  0  0  0  0  0  0  0
   -2.3704    0.7201   -0.9183 H   0  0  0  0  0  0  0  0  0  0  0  0
   -0.6431    1.6708   -0.6834 O   0  0  0  0  0  0  0  0  0  0  0  0
   -1.8100    0.7474    1.0654 O   0  0  0  0  0  0  0  0  0  0  0  0
   -1.6666   -1.7383   -0.0416 O   0  0  0  0  0  0  0  0  0  0  0  0
    1.2200   -2.0041   -0.0589 O   0  0  0  0  0  0  0  0  0  0  0  0
    2.6046    0.4779    0.4603 O   0  0  0  0  0  0  0  0  0  0  0  0
    1.1297    2.5714   -0.3881 H   0  0  0  0  0  0  0  0  0  0  0  0
    0.4417    1.8227    1.0769 H   0  0  0  0  0  0  0  0  0  0  0  0
   -2.2419   -0.0796    1.3179 H   0  0  0  0  0  0  0  0  0  0  0  0
   -1.1431   -2.5392    0.0967 H   0  0  0  0  0  0  0  0  0  0  0  0
    1.4239   -2.0784   -1.0002 H   0  0  0  0  0  0  0  0  0  0  0  0
    2.9041   -0.4288    0.6116 H   0  0  0  0  0  0  0  0  0  0  0  0
  1  2  1  0  0  0  0
  2  3  1  0  0  0  0
  2  4  1  0  0  0  0
  4  5  1  0  0  0  0
  4  6  1  0  0  0  0
  6  7  1  0  0  0  0
  6  8  1  0  0  0  0
  8  9  1  0  0  0  0
  1 10  1  0  0  0  0
  8 10  1  0  0  0  0
  8 11  1  0  0  0  0
  6 12  1  0  0  0  0
  4 13  1  0  0  0  0
  2 14  1  0  0  0  0
  1 15  1  0  0  0  0
  1 16  1  0  0  0  0
 11 17  1  0  0  0  0
 12 18  1  0  0  0  0
 13 19  1  0  0  0  0
 14 20  1  0  0  0  0
M  END
