22
 xtb: 6.7.1 (41059b4)
C            3.57514912048001        0.69531709329223       -0.00029179227709
C            3.57515630511126       -0.69529582283399       -0.00021586711682
C            2.36959473090497       -1.39244499086202       -0.00004777654681
C            1.17017250597481       -0.69747501447092        0.00007067666222
C            1.17016396480402        0.69747763090106        0.00005807843399
C            2.36958185178330        1.39245696761922       -0.00015802302528
O           -0.00001341189426        1.42811910866273        0.00027992542324
C           -1.17018256331883        0.69746115382838        0.00016924828317
C           -2.36960941685682        1.39242630187107        0.00015526430474
C           -3.57516557893033        0.69527000736321        0.00000777093800
C           -3.57515476672769       -0.69534487434793       -0.00015811874338
C           -2.36958628433459       -1.39247731491379       -0.00012513562660
C           -1.17017240760201       -0.69749015021567        0.00008174000687
O            0.00000414497736       -1.42813043368665        0.00023292849834
H            4.51012634551419        1.24439241179154       -0.00044846551816
H            4.51013834257118       -1.24436360006067       -0.00029321792566
H            2.33888673135318       -2.47663759690302        0.00000268960606
H            2.33887087477290        2.47664936341836       -0.00020427548858
H           -2.33891073551130        2.47661951648837        0.00026582787967
H           -4.51015390697340        1.24432693771185        0.00001459050599
H           -4.51013427485244       -1.24441647575690       -0.00031129993321
H           -2.33885497537370       -2.47666936324454       -0.00023890894374
