 xtb: 6.7.1 (41059b4)
          04092502303D

 20 20  0     0  0            999 V2000
    0.6538    1.6927   -0.0538 C   0  0  0  0  0  0  0  0  0  0  0  0
    1.4189    0.3857   -0.2798 C   0  0  0  0  0  0  0  0  0  0  0  0
    1.6120    0.2520   -1.3558 H   0  0  0  0  0  0  0  0  0  0  0  0
    0.5585   -0.7925    0.1940 C   0  0  0  0  0  0  0  0  0  0  0  0
    0.4107   -0.7171    1.2870 H   0  0  0  0  0  0  0  0  0  0  0  0
   -0.8058   -0.7430   -0.5111 C   0  0  0  0  0  0  0  0  0  0  0  0
   -0.6525   -0.9069   -1.5834 H   0  0  0  0  0  0  0  0  0  0  0  0
   -1.4629    0.6375   -0.2850 C   0  0  0  0  0  0  0  0  0  0  0  0
   -2.3534    0.7300   -0.9180 H   0  0  0  0  0  0  0  0  0  0  0  0
   -0.6256    1.6867   -0.6588 O   0  0  0  0  0  0  0  0  0  0  0  0
   -1.9339    0.7214    1.0337 O   0  0  0  0  0  0  0  0  0  0  0  0
   -1.6424   -1.7704   -0.0456 O   0  0  0  0  0  0  0  0  0  0  0  0
    1.2384   -1.9905   -0.0962 O   0  0  0  0  0  0  0  0  0  0  0  0
    2.6240    0.4567    0.4343 O   0  0  0  0  0  0  0  0  0  0  0  0
    1.1877    2.5246   -0.5130 H   0  0  0  0  0  0  0  0  0  0  0  0
    0.5959    1.8822    1.0280 H   0  0  0  0  0  0  0  0  0  0  0  0
   -1.2074    0.9668    1.6195 H   0  0  0  0  0  0  0  0  0  0  0  0
   -2.1416   -1.4206    0.7080 H   0  0  0  0  0  0  0  0  0  0  0  0
    0.5837   -2.7006   -0.1044 H   0  0  0  0  0  0  0  0  0  0  0  0
    3.0267   -0.4204    0.4005 H   0  0  0  0  0  0  0  0  0  0  0  0
  1  2  1  0  0  0  0
  2  3  1  0  0  0  0
  2  4  1  0  0  0  0
  4  5  1  0  0  0  0
  4  6  1  0  0  0  0
  6  7  1  0  0  0  0
  6  8  1  0  0  0  0
  8  9  1  0  0  0  0
  1 10  1  0  0  0  0
  8 10  1  0  0  0  0
  8 11  1  0  0  0  0
  6 12  1  0  0  0  0
  4 13  1  0  0  0  0
  2 14  1  0  0  0  0
  1 15  1  0  0  0  0
  1 16  1  0  0  0  0
 11 17  1  0  0  0  0
 12 18  1  0  0  0  0
 13 19  1  0  0  0  0
 14 20  1  0  0  0  0
M  END
