 xtb: 6.7.1 (41059b4)
          04082522263D

 14 13  0     0  0            999 V2000
   -1.9214    1.1880   -0.2533 C   0  0  0  0  0  0  0  0  0  0  0  0
   -1.4964   -0.1928    0.2301 C   0  0  0  0  0  0  0  0  0  0  0  0
   -0.0291   -0.4944    0.0194 C   0  0  0  0  0  0  0  0  0  0  0  0
    0.4142   -1.5995   -0.1551 O   0  0  0  0  0  0  0  0  0  0  0  0
    0.7244    0.6086    0.0833 O   0  0  0  0  0  0  0  0  0  0  0  0
    2.1273    0.4546   -0.0802 C   0  0  0  0  0  0  0  0  0  0  0  0
   -2.9868    1.3262   -0.0857 H   0  0  0  0  0  0  0  0  0  0  0  0
   -1.3801    1.9639    0.2803 H   0  0  0  0  0  0  0  0  0  0  0  0
   -1.7221    1.2984   -1.3163 H   0  0  0  0  0  0  0  0  0  0  0  0
   -2.0651   -0.9775   -0.2714 H   0  0  0  0  0  0  0  0  0  0  0  0
   -1.6851   -0.2852    1.3034 H   0  0  0  0  0  0  0  0  0  0  0  0
    2.4007    0.6919   -1.1101 H   0  0  0  0  0  0  0  0  0  0  0  0
    2.4206   -0.5723    0.1457 H   0  0  0  0  0  0  0  0  0  0  0  0
    2.6097    1.1520    0.6022 H   0  0  0  0  0  0  0  0  0  0  0  0
  1  2  1  0  0  0  0
  2  3  1  0  0  0  0
  3  4  2  0  0  0  0
  3  5  1  0  0  0  0
  5  6  1  0  0  0  0
  1  7  1  0  0  0  0
  1  8  1  0  0  0  0
  1  9  1  0  0  0  0
  2 10  1  0  0  0  0
  2 11  1  0  0  0  0
  6 12  1  0  0  0  0
  6 13  1  0  0  0  0
  6 14  1  0  0  0  0
M  END
