18
 xtb: 6.7.1 (41059b4)
C           -2.42537232989024       -0.70580592749577        0.00000024441613
C           -2.42537174482841        0.70580962288874       -0.00000376555698
C           -1.23964132243206        1.39917788439364       -0.00000221286831
C            0.00000030046364        0.71542984199365        0.00000003923297
C            1.23964237781190        1.39917672579304       -0.00000468005453
C            2.42537238728587        0.70580750282664       -0.00000136134000
C            2.42537193119400       -0.70580789607154        0.00000821397150
C            1.23964133989445       -1.39917626045216        0.00001131730295
C           -0.00000023834280       -0.71542819498596        0.00000543264401
C           -1.23964245967659       -1.39917527078595        0.00000439057944
H           -3.36920962158828       -1.24163305064244       -0.00000560015146
H           -3.36920859773105        1.24163744575923       -0.00000348626568
H           -1.23673281088775        2.48563259740802       -0.00000216514620
H            1.23673535750882        2.48563143856167       -0.00001200847193
H            3.36920938804220        1.24163508174335       -0.00000797333368
H            3.36920860224893       -1.24163609115475        0.00001262353221
H            1.23673319135205       -2.48563108209629        0.00001952096013
H           -1.23673521126705       -2.48563009809186        0.00000445480282
