20
 xtb: 6.7.1 (41059b4)
C            0.59941219570365        1.71966826216252       -0.05879617098506
C            1.38741570395636        0.42702355153290       -0.25434204459110
H            1.63425284959433        0.29857958317867       -1.31487889415106
C            0.55144147853702       -0.76043426464311        0.20475269511858
H            0.37830406276770       -0.68701490185842        1.29285565260651
C           -0.79523633779126       -0.74474374721793       -0.50465256382406
H           -0.60863636499481       -0.81478529297062       -1.58967323664890
C           -1.49259327405125        0.59423775010491       -0.26708784368862
H           -2.40083756267340        0.66197115689126       -0.87971923306952
O           -0.66416629715185        1.65542824578987       -0.73205598108121
O           -1.78798118990490        0.70886048180157        1.10539683866034
O           -1.64544219769397       -1.79353176684935       -0.07374657055821
O            1.17520764154739       -2.00374735574020       -0.11699982373261
O            2.64794955294743        0.46283958613884        0.42568237364297
H            1.13531572945122        2.56707045749145       -0.49263968744342
H            0.45154926508861        1.90630026470226        1.01707805111726
H           -2.36790272945225        1.47088593074919        1.21884673388250
H           -1.13155046410420       -2.60828444914212       -0.13560060523256
H            2.08438001042714       -1.95619162497656        0.20449861665043
H            2.47314596714083        0.63605316646507        1.35996366042399
