7
 xtb: 6.7.1 (41059b4)
C            0.23901997788920        0.02081594083141        0.03018407992150
N           -1.39210251919163        0.01114187324026       -0.21616284261826
O           -1.86642958909173        0.97897739870490       -0.75264587645719
O           -1.94127814373379       -0.98975731622306        0.17205625107212
Cl           0.87129477201527       -1.35386088370870       -0.88961620040362
Cl           0.90529891068725        1.54187333156979       -0.53532812763433
Cl           0.47390580928406       -0.19074241558897        1.77061811118593
