19
CONF2
C 2.1975494656 -1.1827140256 -0.1049549397
C 1.4253675510 0.1216517368 -0.0542417349
O 1.9840586735 1.2143094349 -0.0283081897
N 0.0684916035 0.0145283854 -0.0261842697
C -0.7170088279 -1.2244943192 -0.0369655604
C -2.1228317701 -0.7437169808 0.3362110726
C -2.1767995536 0.6606229319 -0.2763496379
C -0.7787589434 1.2146556893 0.0061291414
H 3.2429106800 -0.9500744227 -0.3049377369
H 1.8163200974 -1.8604045918 -0.8752509762
H 2.1304081046 -1.7025790361 0.8572558796
H -0.7153684530 -1.6861220129 -1.0367922725
H -0.3228600687 -1.9581740659 0.6741547875
H -2.9036185279 -1.4124048260 -0.0345582204
H -2.2152616520 -0.6801132847 1.4263225958
H -2.3415783377 0.5905082459 -1.3576286716
H -2.9671081141 1.2844703686 0.1478173821
H -0.4332064323 1.9428640096 -0.7329780561
H -0.7206686556 1.6946232278 0.9929359392
19
CONF1
C 2.1835654122 -1.2008129401 -0.0640730679
C 1.4178031681 0.1044424756 0.0408945595
O 1.9816612551 1.1900137342 0.1428252889
N 0.0601490912 0.0047419532 0.0220512777
C -0.7297237010 -1.2273466220 -0.0964355067
C -2.1502366104 -0.7577595864 0.2321165170
C -2.1673709388 0.6789667734 -0.3016730076
C -0.7839556984 1.2066856328 0.0836274661
H 3.2424997219 -0.9649635489 -0.1631911059
H 1.8582683882 -1.7988500868 -0.9215055448
H 2.0380254975 -1.8071097304 0.8366284377
H -0.6789378192 -1.6337000328 -1.1184659007
H -0.3746685785 -2.0008307385 0.5927572957
H -2.9146665082 -1.3987765460 -0.2142015760
H -2.2972561368 -0.7550358578 1.3181172187
H -2.2753893964 0.6710662512 -1.3923683152
H -2.9768457264 1.2829257664 0.1152231498
H -0.3979373954 1.9750335062 -0.5919723508
H -0.7752709621 1.6259600166 1.0992657537
