 xtb: 6.7.1 (41059b4)
          04092503303D

  9  8  0     0  0            999 V2000
    1.2591   -0.2892    0.0037 C   0  0  0  0  0  0  0  0  0  0  0  0
    0.0038    0.5674   -0.0492 C   0  0  0  0  0  0  0  0  0  0  0  0
   -1.1210   -0.2822    0.0433 O   0  0  0  0  0  0  0  0  0  0  0  0
    1.2547   -0.9977   -0.8197 H   0  0  0  0  0  0  0  0  0  0  0  0
    2.1430    0.3386   -0.0657 H   0  0  0  0  0  0  0  0  0  0  0  0
    1.2846   -0.8455    0.9365 H   0  0  0  0  0  0  0  0  0  0  0  0
   -0.0225    1.1335   -0.9922 H   0  0  0  0  0  0  0  0  0  0  0  0
    0.0075    1.2871    0.7829 H   0  0  0  0  0  0  0  0  0  0  0  0
   -1.9234    0.2476    0.0110 H   0  0  0  0  0  0  0  0  0  0  0  0
  1  2  1  0  0  0  0
  2  3  1  0  0  0  0
  1  4  1  0  0  0  0
  1  5  1  0  0  0  0
  1  6  1  0  0  0  0
  2  7  1  0  0  0  0
  2  8  1  0  0  0  0
  3  9  1  0  0  0  0
M  END
