 xtb: 6.7.1 (41059b4)
          04082522383D

 14 13  0     0  0            999 V2000
   -2.4910   -0.0715    0.0108 C   0  0  0  0  0  0  0  0  0  0  0  0
   -1.2280    0.7773   -0.0098 C   0  0  0  0  0  0  0  0  0  0  0  0
    0.0204   -0.0749   -0.0033 C   0  0  0  0  0  0  0  0  0  0  0  0
    0.0557   -1.2753   -0.0035 O   0  0  0  0  0  0  0  0  0  0  0  0
    1.1192    0.6965    0.0015 O   0  0  0  0  0  0  0  0  0  0  0  0
    2.3644    0.0117    0.0056 C   0  0  0  0  0  0  0  0  0  0  0  0
   -3.3734    0.5628    0.0005 H   0  0  0  0  0  0  0  0  0  0  0  0
   -2.5173   -0.7274   -0.8551 H   0  0  0  0  0  0  0  0  0  0  0  0
   -2.5129   -0.6922    0.9026 H   0  0  0  0  0  0  0  0  0  0  0  0
   -1.1854    1.4388    0.8579 H   0  0  0  0  0  0  0  0  0  0  0  0
   -1.1952    1.4079   -0.9008 H   0  0  0  0  0  0  0  0  0  0  0  0
    3.1337    0.7793    0.0117 H   0  0  0  0  0  0  0  0  0  0  0  0
    2.4548   -0.6159   -0.8833 H   0  0  0  0  0  0  0  0  0  0  0  0
    2.4460   -0.6214    0.8914 H   0  0  0  0  0  0  0  0  0  0  0  0
  1  2  1  0  0  0  0
  2  3  1  0  0  0  0
  3  4  2  0  0  0  0
  3  5  1  0  0  0  0
  5  6  1  0  0  0  0
  1  7  1  0  0  0  0
  1  8  1  0  0  0  0
  1  9  1  0  0  0  0
  2 10  1  0  0  0  0
  2 11  1  0  0  0  0
  6 12  1  0  0  0  0
  6 13  1  0  0  0  0
  6 14  1  0  0  0  0
M  END
