 xtb: 6.7.1 (41059b4)
          04092502303D

 20 20  0     0  0            999 V2000
    0.5832    1.7106   -0.0147 C   0  0  0  0  0  0  0  0  0  0  0  0
    1.3940    0.4285   -0.2421 C   0  0  0  0  0  0  0  0  0  0  0  0
    1.6392    0.3253   -1.3050 H   0  0  0  0  0  0  0  0  0  0  0  0
    0.5485   -0.7770    0.1927 C   0  0  0  0  0  0  0  0  0  0  0  0
    0.3539   -0.7035    1.2782 H   0  0  0  0  0  0  0  0  0  0  0  0
   -0.7947   -0.7541   -0.5435 C   0  0  0  0  0  0  0  0  0  0  0  0
   -0.6133   -0.8862   -1.6198 H   0  0  0  0  0  0  0  0  0  0  0  0
   -1.4733    0.6113   -0.3034 C   0  0  0  0  0  0  0  0  0  0  0  0
   -2.3684    0.6925   -0.9393 H   0  0  0  0  0  0  0  0  0  0  0  0
   -0.6533    1.6624   -0.6985 O   0  0  0  0  0  0  0  0  0  0  0  0
   -1.8185    0.7337    1.0481 O   0  0  0  0  0  0  0  0  0  0  0  0
   -1.6606   -1.7483   -0.0545 O   0  0  0  0  0  0  0  0  0  0  0  0
    1.1981   -1.9965   -0.0858 O   0  0  0  0  0  0  0  0  0  0  0  0
    2.6306    0.4345    0.4304 O   0  0  0  0  0  0  0  0  0  0  0  0
    1.1086    2.5782   -0.4161 H   0  0  0  0  0  0  0  0  0  0  0  0
    0.4116    1.8520    1.0616 H   0  0  0  0  0  0  0  0  0  0  0  0
   -2.2416   -0.0987    1.2980 H   0  0  0  0  0  0  0  0  0  0  0  0
   -1.1698   -2.5797   -0.0594 H   0  0  0  0  0  0  0  0  0  0  0  0
    2.1459   -1.8546    0.0358 H   0  0  0  0  0  0  0  0  0  0  0  0
    2.4827    0.6590    1.3576 H   0  0  0  0  0  0  0  0  0  0  0  0
  1  2  1  0  0  0  0
  2  3  1  0  0  0  0
  2  4  1  0  0  0  0
  4  5  1  0  0  0  0
  4  6  1  0  0  0  0
  6  7  1  0  0  0  0
  6  8  1  0  0  0  0
  8  9  1  0  0  0  0
  1 10  1  0  0  0  0
  8 10  1  0  0  0  0
  8 11  1  0  0  0  0
  6 12  1  0  0  0  0
  4 13  1  0  0  0  0
  2 14  1  0  0  0  0
  1 15  1  0  0  0  0
  1 16  1  0  0  0  0
 11 17  1  0  0  0  0
 12 18  1  0  0  0  0
 13 19  1  0  0  0  0
 14 20  1  0  0  0  0
M  END
