8
 xtb: 6.7.1 (41059b4)
C            1.38401881108941        0.53355615169022        0.00053468242028
O            0.59796108349145       -0.68178568536417        0.00148566329494
C           -0.73233820237653       -0.49095341288797       -0.00058296842219
O           -1.29080935277622        0.57497826465200       -0.00309918244281
H            1.15686256889968        1.13063104357200        0.88721782007831
H            1.16754693857182        1.12205172457027       -0.89456027765057
H            2.42324910921192        0.20736374613250        0.00817428266296
H           -1.23352367849688       -1.47229878106816        0.00062112981755
