 xtb: 6.7.1 (41059b4)
          04092502523D

 11 10  0     0  0            999 V2000
   -1.9506   -0.1708    0.5038 C   0  0  0  0  0  0  0  0  0  0  0  0
   -1.1768   -0.1635   -0.8085 C   0  0  0  0  0  0  0  0  0  0  0  0
    0.1096    0.6400   -0.7142 C   0  0  0  0  0  0  0  0  0  0  0  0
    1.2668   -0.1288    0.4092 Cl  0  0  0  0  0  0  0  0  0  0  0  0
   -2.2248    0.8420    0.7911 H   0  0  0  0  0  0  0  0  0  0  0  0
   -2.8587   -0.7597    0.4043 H   0  0  0  0  0  0  0  0  0  0  0  0
   -1.3443   -0.6020    1.2962 H   0  0  0  0  0  0  0  0  0  0  0  0
   -0.9412   -1.1877   -1.1033 H   0  0  0  0  0  0  0  0  0  0  0  0
   -1.7895    0.2822   -1.5964 H   0  0  0  0  0  0  0  0  0  0  0  0
   -0.0772    1.6428   -0.3298 H   0  0  0  0  0  0  0  0  0  0  0  0
    0.6124    0.7012   -1.6793 H   0  0  0  0  0  0  0  0  0  0  0  0
  1  2  1  0  0  0  0
  2  3  1  0  0  0  0
  3  4  1  0  0  0  0
  1  5  1  0  0  0  0
  1  6  1  0  0  0  0
  1  7  1  0  0  0  0
  2  8  1  0  0  0  0
  2  9  1  0  0  0  0
  3 10  1  0  0  0  0
  3 11  1  0  0  0  0
M  END
