 xtb: 6.7.1 (41059b4)
          04082523363D

 11 10  0     0  0            999 V2000
   -1.4180   -0.9850    0.1464 C   0  0  0  0  0  0  0  0  0  0  0  0
   -0.0006    0.1137   -0.1297 S   0  0  0  0  0  0  0  0  0  0  0  0
    0.0789    1.0428    0.9619 O   0  0  0  0  0  0  0  0  0  0  0  0
   -0.0830    0.6419   -1.4621 O   0  0  0  0  0  0  0  0  0  0  0  0
    1.4212   -1.0100   -0.0386 C   0  0  0  0  0  0  0  0  0  0  0  0
   -1.4353   -1.7239   -0.6435 H   0  0  0  0  0  0  0  0  0  0  0  0
   -1.3103   -1.4422    1.1210 H   0  0  0  0  0  0  0  0  0  0  0  0
   -2.3144   -0.3784    0.1132 H   0  0  0  0  0  0  0  0  0  0  0  0
    1.4387   -1.4582    0.9458 H   0  0  0  0  0  0  0  0  0  0  0  0
    1.3178   -1.7546   -0.8165 H   0  0  0  0  0  0  0  0  0  0  0  0
    2.3155   -0.4208   -0.1990 H   0  0  0  0  0  0  0  0  0  0  0  0
  1  2  1  0  0  0  0
  2  3  2  0  0  0  0
  2  4  2  0  0  0  0
  2  5  1  0  0  0  0
  1  6  1  0  0  0  0
  1  7  1  0  0  0  0
  1  8  1  0  0  0  0
  5  9  1  0  0  0  0
  5 10  1  0  0  0  0
  5 11  1  0  0  0  0
M  END
