28
 xtb: 6.7.1 (41059b4)
C           -3.99769041371523       -0.69901275264022        0.00474369445942
C           -3.99768751531733        0.69904883544073        0.00488949081337
C           -2.79970468331044        1.39450460437946        0.00194228637370
C           -1.58460468902574        0.70099573759763       -0.00061814635042
C           -1.58460775770165       -0.70097049332800       -0.00086774405377
C           -2.79971111182548       -1.39447408664046        0.00160990567760
C           -0.31878800868682       -1.46420797816565       -0.00325366714937
O           -0.36295039716301       -2.70956684193260       -0.00560436438837
C            0.93399316043917       -0.71829046211475       -0.00275423144092
C            2.16074435926082       -1.42528017023341        0.00054673830438
C            3.36995064176453       -0.68127647823022        0.00743673942356
C            3.36995350990138        0.68126370857541        0.00732506922251
C            2.16075620191745        1.42527815309941        0.00034330153967
C            0.93400242489882        0.71830300919262       -0.00274586186280
C           -0.31878109302072        1.46422935770512       -0.00258708757735
O           -0.36293649753614        2.70958580309480       -0.00455074856948
N            2.23015494551193        2.77820999309532       -0.00502226745908
N            2.23010522928213       -2.77819556167653       -0.00351410883047
H           -4.93840071044301       -1.24046946774398        0.00706878232567
H           -4.93839609157413        1.24050890091864        0.00732301646977
H           -2.77355612324252        2.47825056126974        0.00197725463580
H           -2.77356910371674       -2.47821967380519        0.00135114034436
H            4.31396261433301       -1.21961410269815        0.01199557821624
H            4.31397009618075        1.21959569666091        0.01165091122634
H            3.12405930619576        3.23370944180205        0.01708621509055
H            1.35348606469172        3.28922032125558        0.00151119706455
H            1.35344436311764       -3.28924472830216       -0.00074517817585
H            3.12409871556801       -3.23377357334330        0.01214808048143
