8
 xtb: 6.7.1 (41059b4)
C           -0.79912163803289        0.00005680395100        0.65216870533150
C            0.60879685517468       -0.00008638867588       -0.00447702992214
Cl           1.49299431958312       -1.45576315157957        0.56664351484900
Cl           1.49347147114717        1.45515760999722        0.56710644191234
Cl           0.51308445832417        0.00021960398043       -1.78087093982656
Cl          -1.72219521975860        1.46697479979597        0.21292315634154
Cl          -1.72268696365070       -1.46643157017211        0.21251374143848
H           -0.66490580678237       -0.00011536944268        1.73626196276128
