 xtb: 6.7.1 (41059b4)
          04092501533D

  8  7  0     0  0            999 V2000
    0.7012   -0.0001   -1.1674 C   0  0  0  0  0  0  0  0  0  0  0  0
   -0.3711   -0.0001   -0.0956 C   0  0  0  0  0  0  0  0  0  0  0  0
   -1.9631   -0.0003   -0.8982 Cl  0  0  0  0  0  0  0  0  0  0  0  0
   -0.2482   -1.4452    0.9249 Cl  0  0  0  0  0  0  0  0  0  0  0  0
   -0.2484    1.4454    0.9246 Cl  0  0  0  0  0  0  0  0  0  0  0  0
    2.3131    0.0001   -0.4221 Cl  0  0  0  0  0  0  0  0  0  0  0  0
    0.6134    0.8957   -1.7837 H   0  0  0  0  0  0  0  0  0  0  0  0
    0.6135   -0.8961   -1.7835 H   0  0  0  0  0  0  0  0  0  0  0  0
  1  2  1  0  0  0  0
  2  3  1  0  0  0  0
  2  4  1  0  0  0  0
  2  5  1  0  0  0  0
  1  6  1  0  0  0  0
  1  7  1  0  0  0  0
  1  8  1  0  0  0  0
M  END
