14
CONF1
C 2.0322244153 0.7620246018 -0.0001293020
C 0.7778833913 -0.0787250502 -0.0000682036
O 0.8142331889 -1.2963780569 0.0005397540
C -0.5109762037 0.6639133720 -0.0005114377
C -1.6742413760 0.0231140151 -0.7418478312
C -1.6740653055 0.0242479688 0.7421582151
H 2.0426012522 1.4152348517 -0.8803429986
H 2.0418145021 1.4167800366 0.8789418547
H 2.9156750827 0.1233962730 0.0007954693
H -0.4554348301 1.7478263840 -0.0012967547
H -2.3457015689 0.6944372822 -1.2649883427
H -1.4426790372 -0.9134819697 -1.2371956818
H -2.3453850296 0.6963710001 1.2644535486
H -1.4423862124 -0.9115859215 1.2388897294
14
CONF2
C 2.0483236793 0.7582310685 0.0002206253
C 0.7718489965 -0.0585772878 -0.0003338912
O 0.8146924418 -1.2768856178 0.0001001317
C -0.5217794292 0.6719570408 -0.0007809137
C -1.6797244880 0.0145615799 -0.7405763390
C -1.6793133063 0.0160636403 0.7411517835
H 2.6375937544 0.4847118055 0.8806385163
H 2.6402897443 0.4818455884 -0.8774596094
H 1.8751426359 1.8359257324 -0.0016752205
H -0.4838291636 1.7555757898 -0.0017969382
H -2.3570146358 0.6786483607 -1.2653972658
H -1.4338179041 -0.9181864036 -1.2361048849
H -2.3562636511 0.6812418016 1.2650306725
H -1.4331486224 -0.9156671421 1.2384580551
