20
 xtb: 6.7.1 (41059b4)
C            0.86029913959292        1.39380710477097       -0.59715587106462
C            1.59648825486665        0.17258525020954       -0.06596413719866
H            2.56272029829080        0.08668033275362       -0.59478906936752
C            0.76523779132539       -1.09965210309503       -0.31436245896793
H            1.19257704067922       -1.94286154881669        0.25565960424610
C           -0.68773795897338       -0.90180220637062        0.13727848818039
H           -1.28190786467274       -1.75923596715850       -0.19687363006368
C           -1.27629981835659        0.38313327204352       -0.46232166974876
H           -1.31231310732986        0.33083516407790       -1.56048622717775
O           -0.45334411638354        1.49253304164249       -0.06033383588964
O           -2.56308010642635        0.60826199073274       -0.00278337696091
O           -0.79397036114080       -0.85094716262212        1.55747223992477
O            0.71052193999311       -1.39735123721121       -1.71052951780120
O            1.81237531223121        0.38093703267916        1.33741515816597
H            0.82963455288397        1.33688568088646       -1.69710722948834
H            1.38931228234552        2.30368521557895       -0.30071949769397
H           -2.56023960924301        0.38198844541707        0.93969526253070
H           -0.20780425914575       -0.13229244895617        1.84703598666533
H            1.60088717242623       -1.60288553589796       -2.01675111847033
H            2.25204777591032       -0.40003938323150        1.69512163366951
