 xtb: 6.7.1 (41059b4)
          04092502303D

 20 20  0     0  0            999 V2000
    0.8822    1.3439   -0.6974 C   0  0  0  0  0  0  0  0  0  0  0  0
    1.5911    0.1681   -0.0217 C   0  0  0  0  0  0  0  0  0  0  0  0
    2.6199    0.0642   -0.3927 H   0  0  0  0  0  0  0  0  0  0  0  0
    0.7901   -1.1181   -0.3397 C   0  0  0  0  0  0  0  0  0  0  0  0
    1.2116   -1.9543    0.2403 H   0  0  0  0  0  0  0  0  0  0  0  0
   -0.6718   -0.9308    0.0925 C   0  0  0  0  0  0  0  0  0  0  0  0
   -1.2768   -1.7410   -0.3287 H   0  0  0  0  0  0  0  0  0  0  0  0
   -1.2493    0.4087   -0.4327 C   0  0  0  0  0  0  0  0  0  0  0  0
   -1.3635    0.3611   -1.5257 H   0  0  0  0  0  0  0  0  0  0  0  0
   -0.3844    1.4933   -0.1055 O   0  0  0  0  0  0  0  0  0  0  0  0
   -2.4812    0.6487    0.1199 O   0  0  0  0  0  0  0  0  0  0  0  0
   -0.8187   -0.9947    1.4898 O   0  0  0  0  0  0  0  0  0  0  0  0
    0.8029   -1.3992   -1.7167 O   0  0  0  0  0  0  0  0  0  0  0  0
    1.6392    0.3791    1.3746 O   0  0  0  0  0  0  0  0  0  0  0  0
    0.7951    1.1633   -1.7764 H   0  0  0  0  0  0  0  0  0  0  0  0
    1.4179    2.2796   -0.5208 H   0  0  0  0  0  0  0  0  0  0  0  0
   -2.4375    0.3852    1.0538 H   0  0  0  0  0  0  0  0  0  0  0  0
   -0.0358   -0.5866    1.8928 H   0  0  0  0  0  0  0  0  0  0  0  0
    1.6964   -1.6427   -1.9839 H   0  0  0  0  0  0  0  0  0  0  0  0
    1.0923    1.1565    1.5638 H   0  0  0  0  0  0  0  0  0  0  0  0
  1  2  1  0  0  0  0
  2  3  1  0  0  0  0
  2  4  1  0  0  0  0
  4  5  1  0  0  0  0
  4  6  1  0  0  0  0
  6  7  1  0  0  0  0
  6  8  1  0  0  0  0
  8  9  1  0  0  0  0
  1 10  1  0  0  0  0
  8 10  1  0  0  0  0
  8 11  1  0  0  0  0
  6 12  1  0  0  0  0
  4 13  1  0  0  0  0
  2 14  1  0  0  0  0
  1 15  1  0  0  0  0
  1 16  1  0  0  0  0
 11 17  1  0  0  0  0
 12 18  1  0  0  0  0
 13 19  1  0  0  0  0
 14 20  1  0  0  0  0
M  END
