14
 xtb: 6.7.1 (41059b4)
C           -2.23285964395794        0.33728884902158        0.66088390519527
C           -1.31393782724926        0.48162853467833       -0.56045270495993
C            0.00768692986007       -0.19121185721050       -0.28962800380179
O            0.19750891347647       -1.38498449898591       -0.31797227281347
O            0.96497815190356        0.71003846265411        0.04298949214481
C            2.24384581899179        0.13176246673308        0.38227910253545
H           -2.38326262032816       -0.71772259502183        0.90323817280817
H           -1.80208718453524        0.83573117666237        1.53383764129291
H           -3.20729383717167        0.78821305526535        0.45695626921836
H           -1.15626137184271        1.53560378971421       -0.80132443804871
H           -1.76309410259500       -0.01808359987539       -1.42338947021167
H            2.62838854495833       -0.45785428941812       -0.45353282117322
H            2.14708308942324       -0.51347881913427        1.25932252520448
H            2.89899122169560        0.97629357603102        0.59455340802652
