12
 xtb: 6.7.1 (41059b4)
C           -2.47188137252037        0.69583536535600        0.00001378780663
C           -2.47193382594532       -0.69567029860212       -0.00006659115775
C           -1.27013533229101       -1.39164358897066       -0.00009958231175
C           -0.06258038589197       -0.69843130355620       -0.00004359041705
C           -0.06252816584579        0.69841705630006        0.00005423457564
C           -1.27003218589420        1.39172024578161        0.00007712040928
Cl           1.42842508684985        1.59810049530622        0.00014845060792
Cl           1.42830430878803       -1.59822698660581       -0.00011054120637
H           -3.40658707969386        1.24576608387978        0.00003102137478
H           -3.40667971366934       -1.24553182271382       -0.00011028850933
H           -1.25343092974012       -2.47529770851696       -0.00017322728178
H           -1.25324670546933        2.47537332077282        0.00014415625342
