8
CONF1
C -0.4780542528 0.5848790262 -0.0001837424
C 0.4781060933 -0.5849562198 -0.0001262746
Cl 2.1781769165 0.0688851421 -0.0001215663
Cl -2.1781218340 -0.0689658839 -0.0001009079
H -0.3647269184 1.1995982368 -0.8943149630
H -0.3646838392 1.1997174113 0.8938586134
H 0.3647419425 -1.1997043022 0.8939807399
H 0.3647720313 -1.1997664173 -0.8941922268
8
CONF2
C -0.6199967502 0.4278734994 0.9668118492
C 0.6200221184 -0.4280110533 0.9667303552
Cl 1.7217182129 -0.0408781539 -0.4191295294
Cl -1.7217244069 0.0409395193 -0.4190745982
H -0.3759467541 1.4897747574 0.9003479754
H -1.1860330422 0.2374906770 1.8839005506
H 1.1860856079 -0.2377614113 1.8838303148
H 0.3759691163 -1.4899028405 0.9001174081
