19
CONF1
C -2.5616135535 0.6243185153 0.0000594780
C -1.2229419062 -0.0606858658 0.0000534708
C -1.1510107898 -1.4553439236 0.0000482873
C 0.0800432966 -2.0996188425 -0.0000230963
C 1.2518856101 -1.3559794497 -0.0000288437
C 1.1830617741 0.0368042155 -0.0000018583
C -0.0466036622 0.7072366059 -0.0000199566
C -0.1036332194 2.2096137378 -0.0001421985
O 2.3227417073 0.8038176525 0.0000268535
H -2.6834936866 1.2660704851 -0.8801615410
H -3.3733894149 -0.1062567022 0.0011247344
H -2.6826657387 1.2677487826 0.8791567879
H -2.0679142785 -2.0365356392 0.0000925086
H 0.1304351509 -3.1837005715 -0.0000566971
H 2.2198994966 -1.8518196060 -0.0000540886
H -0.6402611313 2.5821910486 -0.8803030505
H -0.6394471292 2.5824070517 0.8804253624
H 0.8941543161 2.6463348890 -0.0006432727
H 3.0869280389 0.2175936259 0.0001484848
19
CONF2
C -2.5856868035 0.6022930364 0.0010818189
C -1.2317845754 -0.0585855096 0.0000932571
C -1.1509485218 -1.4550668536 0.0002677975
C 0.0791556449 -2.0991754156 -0.0003933964
C 1.2525537352 -1.3555763680 -0.0003818265
C 1.1737046488 0.0342552017 -0.0002120121
C -0.0559554469 0.7062855054 -0.0012377935
C -0.0438601447 2.2093719095 -0.0016132415
O 2.2976833325 0.8232857198 0.0015606820
H -2.7315738210 1.2252906490 -0.8882153817
H -3.3782334858 -0.1489922470 0.0157072383
H -2.7198358928 1.2478760117 0.8757767954
H -2.0656771269 -2.0394606022 0.0011455528
H 0.1287057520 -3.1833505666 -0.0003589407
H 2.2222367921 -1.8481988256 -0.0000474552
H 0.4550156557 2.5945017575 0.8945794306
H 0.5218112204 2.5924530167 -0.8574790032
H -1.0497157041 2.6266613876 -0.0399882808
H 3.0753888193 0.2544751331 0.0007013098
19
CONF3
C -2.5951211021 0.5802879634 -0.0000497901
C -1.2343740165 -0.0673725084 0.0000223819
C -1.1392785952 -1.4608482200 0.0000301329
C 0.1002367058 -2.0917231936 0.0000687674
C 1.2660510449 -1.3419621295 -0.0000046172
C 1.1764721270 0.0471260253 -0.0001114725
C -0.0617121959 0.7068695075 0.0000515019
C -0.0820712789 2.2133847622 0.0000025470
O 2.3610071019 0.7366254978 -0.0003644937
H -2.7447536628 1.2116266986 0.8830278135
H -2.7446064670 1.2116997980 -0.8830995969
H -3.3787440965 -0.1803228497 -0.0001127675
H -2.0481759883 -2.0542948848 0.0000018151
H 0.1582281259 -3.1755270586 0.0000993664
H 2.2461707258 -1.8058918724 -0.0000616709
H 0.4189399085 2.6266616027 0.8864596897
H 0.4135702668 2.6265807405 -0.8895211724
H -1.0985241673 2.6052336220 0.0031472760
H 2.1807379421 1.6827488075 -0.0012525404
19
CONF4
C -2.5706870122 0.6011677493 -0.0016327404
C -1.2234593511 -0.0681008238 0.0002023708
C -1.1384834302 -1.4593071214 -0.0003564444
C 0.1006942257 -2.0918186076 0.0013341511
C 1.2642216707 -1.3418000323 0.0015139337
C 1.1868810259 0.0508025635 0.0004225026
C -0.0507584590 0.7112650743 0.0023697259
C -0.1623848510 2.2133518133 0.0023145508
O 2.3891769107 0.7091523154 -0.0029256406
H -2.7100455792 1.2313551294 0.8845659890
H -2.6985169903 1.2496969362 -0.8761712218
H -3.3714964426 -0.1410725822 -0.0141674319
H -2.0501694160 -2.0483974084 -0.0021302918
H 0.1593935552 -3.1754832086 0.0012938527
H 2.2434397473 -1.8072671220 0.0010069060
H -0.7434764152 2.5663701122 0.8610485940
H 0.7981888626 2.7346849564 0.0487783161
H -0.6687969829 2.5741990614 -0.8999641108
H 2.2344036029 1.6590464082 -0.0135802005
19
CONF5
C -2.6269265343 0.5332631714 0.0093357359
C -1.2366300919 -0.0544121828 -0.0007682230
C -1.1382940995 -1.4514856319 -0.0024629769
C 0.0951626847 -2.0858223846 -0.0040066857
C 1.2637806734 -1.3369750828 -0.0009822247
C 1.1746383935 0.0494295190 0.0013170676
C -0.0644209535 0.7191796806 -0.0032156462
C -0.0425033006 2.2264326841 -0.0102144684
O 2.3617995972 0.7349429806 0.0071082480
H -2.6488308774 1.6218892294 -0.0039191876
H -3.1942533387 0.1809293588 -0.8585014077
H -3.1688212120 0.2052591360 0.9028379183
H -2.0505276982 -2.0410814670 -0.0018687421
H 0.1504916572 -3.1698119897 -0.0060875739
H 2.2436137348 -1.8014502909 0.0005301352
H 0.4180902685 2.6295454651 0.9024615619
H 0.5180962394 2.6153688889 -0.8714686423
H -1.0388040175 2.6591848048 -0.0731143786
H 2.1869918103 1.6817637042 0.0223026634
