19
CONF4
C -2.5706870122 0.6011677493 -0.0016327404
C -1.2234593511 -0.0681008238 0.0002023708
C -1.1384834302 -1.4593071214 -0.0003564444
C 0.1006942257 -2.0918186076 0.0013341511
C 1.2642216707 -1.3418000323 0.0015139337
C 1.1868810259 0.0508025635 0.0004225026
C -0.0507584590 0.7112650743 0.0023697259
C -0.1623848510 2.2133518133 0.0023145508
O 2.3891769107 0.7091523154 -0.0029256406
H -2.7100455792 1.2313551294 0.8845659890
H -2.6985169903 1.2496969362 -0.8761712218
H -3.3714964426 -0.1410725822 -0.0141674319
H -2.0501694160 -2.0483974084 -0.0021302918
H 0.1593935552 -3.1754832086 0.0012938527
H 2.2434397473 -1.8072671220 0.0010069060
H -0.7434764152 2.5663701122 0.8610485940
H 0.7981888626 2.7346849564 0.0487783161
H -0.6687969829 2.5741990614 -0.8999641108
H 2.2344036029 1.6590464082 -0.0135802005
19
CONF5
C -2.6269265343 0.5332631714 0.0093357359
C -1.2366300919 -0.0544121828 -0.0007682230
C -1.1382940995 -1.4514856319 -0.0024629769
C 0.0951626847 -2.0858223846 -0.0040066857
C 1.2637806734 -1.3369750828 -0.0009822247
C 1.1746383935 0.0494295190 0.0013170676
C -0.0644209535 0.7191796806 -0.0032156462
C -0.0425033006 2.2264326841 -0.0102144684
O 2.3617995972 0.7349429806 0.0071082480
H -2.6488308774 1.6218892294 -0.0039191876
H -3.1942533387 0.1809293588 -0.8585014077
H -3.1688212120 0.2052591360 0.9028379183
H -2.0505276982 -2.0410814670 -0.0018687421
H 0.1504916572 -3.1698119897 -0.0060875739
H 2.2436137348 -1.8014502909 0.0005301352
H 0.4180902685 2.6295454651 0.9024615619
H 0.5180962394 2.6153688889 -0.8714686423
H -1.0388040175 2.6591848048 -0.0731143786
H 2.1869918103 1.6817637042 0.0223026634
