9
 xtb: 6.7.1 (41059b4)
C           -1.72443552583632        0.41031039138044        0.02438870847190
C           -0.61750215100430       -0.63222480117265       -0.04358312244598
S            0.99271302344439        0.22822517251173       -0.34721884233683
H           -1.79008959178254        0.97730750045180       -0.90891456733866
H           -2.68809571653643       -0.08017610435651        0.19273963377079
H           -1.55365344932235        1.11532372744260        0.84296544423494
H           -0.80180155475572       -1.33720282446592       -0.85861022809894
H           -0.55110069238972       -1.18699791184309        0.89620866282715
H            1.76090786701597       -0.87495754900028       -0.38722369157757
