 xtb: 6.7.1 (41059b4)
          04092502503D

 14 14  0     0  0            999 V2000
    2.0168    0.7731   -0.0002 C   0  0  0  0  0  0  0  0  0  0  0  0
    0.7848   -0.1001    0.0000 C   0  0  0  0  0  0  0  0  0  0  0  0
    0.8387   -1.3072    0.0007 O   0  0  0  0  0  0  0  0  0  0  0  0
   -0.4980    0.6452   -0.0004 C   0  0  0  0  0  0  0  0  0  0  0  0
   -1.6654    0.0309   -0.7413 C   0  0  0  0  0  0  0  0  0  0  0  0
   -1.6653    0.0320    0.7416 C   0  0  0  0  0  0  0  0  0  0  0  0
    2.0122    1.4104   -0.8821 H   0  0  0  0  0  0  0  0  0  0  0  0
    2.0116    1.4119    0.8807 H   0  0  0  0  0  0  0  0  0  0  0  0
    2.9124    0.1581    0.0006 H   0  0  0  0  0  0  0  0  0  0  0  0
   -0.4119    1.7236   -0.0012 H   0  0  0  0  0  0  0  0  0  0  0  0
   -2.3286    0.6978   -1.2705 H   0  0  0  0  0  0  0  0  0  0  0  0
   -1.4727   -0.9051   -1.2431 H   0  0  0  0  0  0  0  0  0  0  0  0
   -2.3284    0.6997    1.2699 H   0  0  0  0  0  0  0  0  0  0  0  0
   -1.4726   -0.9032    1.2448 H   0  0  0  0  0  0  0  0  0  0  0  0
  1  2  1  0  0  0  0
  2  3  2  0  0  0  0
  2  4  1  0  0  0  0
  4  5  1  0  0  0  0
  4  6  1  0  0  0  0
  5  6  1  0  0  0  0
  1  7  1  0  0  0  0
  1  8  1  0  0  0  0
  1  9  1  0  0  0  0
  4 10  1  0  0  0  0
  5 11  1  0  0  0  0
  5 12  1  0  0  0  0
  6 13  1  0  0  0  0
  6 14  1  0  0  0  0
M  END
