14
 xtb: 6.7.1 (41059b4)
C           -2.16080747202969        0.33873594950521        0.68749244068592
C           -1.32753815429012        0.48777514741856       -0.59419095425894
C            0.02543811389105       -0.15087373698849       -0.41196923305740
O            0.31328066063521       -1.28563409254315       -0.71325481134265
O            0.88804189361175        0.70270188593482        0.19453594459654
C            2.18709468669534        0.14542710390135        0.48252460545472
H           -3.15436420111665        0.77240018530724        0.54668643319477
H           -2.28159746147008       -0.71666414722444        0.94757155251073
H           -1.67906871539938        0.84977199951607        1.52541628309374
H           -1.20460852649888        1.54626935140141       -0.84113883042272
H           -1.81900863486758       -0.01926759539561       -1.42774612279867
H            2.68568983651151       -0.15619302398453       -0.44271587581862
H            2.09160519589883       -0.72645518342790        1.13562288523524
H            2.74300629759658        0.94112877519275        0.97897888415160
