11
 xtb: 6.7.1 (41059b4)
C            1.40434546786525       -0.00062128650936       -0.00004446552792
C            0.69391414362502       -1.19524691818186       -0.00007872774887
C           -0.69723976254495       -1.14065511494723       -0.00012576680238
N           -1.39374233699885        0.00060910942639       -0.00006262367465
C           -0.69623780175502        1.14126011661670       -0.00000520196540
C            0.69496460929539        1.19462927252661       -0.00003438942501
H            2.48997891823496       -0.00109968775445       -0.00005352068193
H            1.20481729325227       -2.15255997344656       -0.00008363331929
H           -1.28194892175125       -2.05956771021570       -0.00004149414684
H           -1.28013693111657        2.06068694079406       -0.00007597591706
H            1.20670993351624        2.15149302083795       -0.00003178512385
