 xtb: 6.7.1 (41059b4)
          04092501203D

 20 19  0     0  0            999 V2000
   -1.2410   -0.9366    1.2729 C   0  0  0  0  0  0  0  0  0  0  0  0
   -1.0105   -0.1153    0.0001 C   0  0  0  0  0  0  0  0  0  0  0  0
   -1.9396    1.0971   -0.0262 C   0  0  0  0  0  0  0  0  0  0  0  0
   -1.2388   -0.9886   -1.2383 C   0  0  0  0  0  0  0  0  0  0  0  0
    0.4361    0.3661   -0.0129 C   0  0  0  0  0  0  0  0  0  0  0  0
    0.7893    1.5147   -0.0583 O   0  0  0  0  0  0  0  0  0  0  0  0
    1.2975   -0.6601    0.0307 O   0  0  0  0  0  0  0  0  0  0  0  0
    2.6749   -0.3170    0.0196 C   0  0  0  0  0  0  0  0  0  0  0  0
   -0.5735   -1.7939    1.2985 H   0  0  0  0  0  0  0  0  0  0  0  0
   -1.0618   -0.3281    2.1568 H   0  0  0  0  0  0  0  0  0  0  0  0
   -2.2688   -1.2915    1.3011 H   0  0  0  0  0  0  0  0  0  0  0  0
   -1.7638    1.7278    0.8414 H   0  0  0  0  0  0  0  0  0  0  0  0
   -2.9775    0.7737   -0.0230 H   0  0  0  0  0  0  0  0  0  0  0  0
   -1.7583    1.6937   -0.9165 H   0  0  0  0  0  0  0  0  0  0  0  0
   -1.0602   -0.4165   -2.1463 H   0  0  0  0  0  0  0  0  0  0  0  0
   -0.5695   -1.8450   -1.2283 H   0  0  0  0  0  0  0  0  0  0  0  0
   -2.2658   -1.3466   -1.2525 H   0  0  0  0  0  0  0  0  0  0  0  0
    2.9128    0.3251    0.8701 H   0  0  0  0  0  0  0  0  0  0  0  0
    2.9259    0.2148   -0.9006 H   0  0  0  0  0  0  0  0  0  0  0  0
    3.2234   -1.2534    0.0815 H   0  0  0  0  0  0  0  0  0  0  0  0
  1  2  1  0  0  0  0
  2  3  1  0  0  0  0
  2  4  1  0  0  0  0
  2  5  1  0  0  0  0
  5  6  2  0  0  0  0
  5  7  1  0  0  0  0
  7  8  1  0  0  0  0
  1  9  1  0  0  0  0
  1 10  1  0  0  0  0
  1 11  1  0  0  0  0
  3 12  1  0  0  0  0
  3 13  1  0  0  0  0
  3 14  1  0  0  0  0
  4 15  1  0  0  0  0
  4 16  1  0  0  0  0
  4 17  1  0  0  0  0
  8 18  1  0  0  0  0
  8 19  1  0  0  0  0
  8 20  1  0  0  0  0
M  END
