 xtb: 6.7.1 (41059b4)
          04092503363D

 10  9  0     0  0            999 V2000
   -1.2511    0.3046   -0.0175 C   0  0  0  0  0  0  0  0  0  0  0  0
   -0.0077   -0.5748   -0.0176 C   0  0  0  0  0  0  0  0  0  0  0  0
    1.1853    0.2578   -0.0167 N   0  0  0  0  0  0  0  0  0  0  0  0
   -1.2131    0.9923   -0.8576 H   0  0  0  0  0  0  0  0  0  0  0  0
   -2.1466   -0.3060   -0.0968 H   0  0  0  0  0  0  0  0  0  0  0  0
   -1.3054    0.8852    0.9013 H   0  0  0  0  0  0  0  0  0  0  0  0
    0.0163   -1.1761   -0.9312 H   0  0  0  0  0  0  0  0  0  0  0  0
   -0.0530   -1.2688    0.8405 H   0  0  0  0  0  0  0  0  0  0  0  0
    1.2093    0.8310    0.8208 H   0  0  0  0  0  0  0  0  0  0  0  0
    2.0211   -0.3166   -0.0230 H   0  0  0  0  0  0  0  0  0  0  0  0
  1  2  1  0  0  0  0
  2  3  1  0  0  0  0
  1  4  1  0  0  0  0
  1  5  1  0  0  0  0
  1  6  1  0  0  0  0
  2  7  1  0  0  0  0
  2  8  1  0  0  0  0
  3  9  1  0  0  0  0
  3 10  1  0  0  0  0
M  END
