14
 xtb: 6.7.1 (41059b4)
C           -2.48503368450815        0.01135049234123        0.29627007156081
C           -1.23134881065448        0.74498713306535       -0.15840731336045
C            0.03249937413045       -0.01379555089915        0.16660548730367
O            0.08789285553839       -1.12479765169674        0.63820572315832
O            1.12816918066612        0.72086149184243       -0.14782900767437
C            2.38835999931048        0.06737668356634        0.10926563794200
H           -3.37890686508074        0.57521918984122        0.01688514679629
H           -2.54053943980191       -0.98032241654740       -0.15809510701424
H           -2.48510437291412       -0.12477219755897        1.38046498587409
H           -1.15485113606786        1.74076112487420        0.29298161196163
H           -1.23794722138630        0.91406724364455       -1.24249676273711
H            3.15435656286777        0.78026672955484       -0.19498570643136
H            2.46595082861497       -0.85450430471077       -0.47291073970719
H            2.48450525727753       -0.17291524722493        1.17126460917678
