8
CONF2
C 0.7368961916 0.6386429612 0.0096918865
C -0.6151714303 -0.0386130220 -0.4139887980
F -1.1251065544 0.7228833800 -1.4068272675
Cl -1.7597085573 -0.0556673550 0.9505662004
Cl -0.3220696399 -1.6821530682 -1.0346264706
F 1.5359244362 0.6927325767 -1.0687586294
F 0.4739708078 1.8986102092 0.3937242112
Cl 1.5608778673 -0.2340407156 1.3267714102
8
CONF1
C 0.7093554626 0.5569925594 0.2176912950
C -0.5773865769 -0.1671569281 -0.3123743384
F -0.4767506700 -0.2750201930 -1.6496650527
Cl -2.0075720818 0.8322217568 0.0858413452
Cl -0.7291262123 -1.7871337346 0.4121586690
F 0.7675732254 1.7820405060 -0.3284552222
F 0.6441909915 0.6857944198 1.5482818704
Cl 2.1849068958 -0.3506697329 -0.2334258104
