 xtb: 6.7.1 (41059b4)
          04092501233D

  8  7  0     0  0            999 V2000
   -0.4623    0.5961    0.0001 C   0  0  0  0  0  0  0  0  0  0  0  0
    0.4623   -0.5961    0.0001 C   0  0  0  0  0  0  0  0  0  0  0  0
    2.3167    0.0223    0.0001 Br  0  0  0  0  0  0  0  0  0  0  0  0
   -2.3168   -0.0222    0.0001 Br  0  0  0  0  0  0  0  0  0  0  0  0
   -0.3328    1.2091   -0.8917 H   0  0  0  0  0  0  0  0  0  0  0  0
   -0.3328    1.2091    0.8919 H   0  0  0  0  0  0  0  0  0  0  0  0
    0.3328   -1.2090    0.8919 H   0  0  0  0  0  0  0  0  0  0  0  0
    0.3327   -1.2090   -0.8917 H   0  0  0  0  0  0  0  0  0  0  0  0
  1  2  1  0  0  0  0
  2  3  1  0  0  0  0
  1  4  1  0  0  0  0
  1  5  1  0  0  0  0
  1  6  1  0  0  0  0
  2  7  1  0  0  0  0
  2  8  1  0  0  0  0
M  END
