15
 xtb: 6.7.1 (41059b4)
C           -0.67939765398944       -2.18209576034711       -0.00000527608388
C            0.20218912654819       -0.96939088642640       -0.00001874503207
C            1.59538048930801       -1.08577409737538       -0.00003216391547
C            2.42578831595408        0.02927456096353       -0.00008295140141
C            1.87201928146753        1.30486018207893       -0.00010353541857
C            0.49012398938360        1.45859843340960       -0.00008474278816
C           -0.31815658089842        0.32877701460950       -0.00005203310265
Cl          -2.06309806706157        0.55545354460752       -0.00008627363953
H           -1.33180924229955       -2.19559953258564       -0.87921986937288
H           -0.07753262544156       -3.09324466212615        0.00037251030948
H           -1.33234704185169       -2.19520867658576        0.87881105683327
H            2.03022471267961       -2.08119098146962       -0.00000924647856
H            3.50305424589304       -0.09929705833846       -0.00010289036505
H            2.50854759928123        2.18346796222219       -0.00013965507282
H            0.03811946363236        2.44367312263007       -0.00010389992185
