 xtb: 6.7.1 (41059b4)
          04092502503D

 14 14  0     0  0            999 V2000
    1.4368    0.9300   -0.3061 C   0  0  0  0  0  0  0  0  0  0  0  0
    0.7672   -0.3704    0.0664 C   0  0  0  0  0  0  0  0  0  0  0  0
    1.4026   -1.3826    0.2526 O   0  0  0  0  0  0  0  0  0  0  0  0
   -0.7083   -0.3646    0.2271 C   0  0  0  0  0  0  0  0  0  0  0  0
   -1.4844    0.8829    0.5677 C   0  0  0  0  0  0  0  0  0  0  0  0
   -1.6139    0.2927   -0.7901 C   0  0  0  0  0  0  0  0  0  0  0  0
    0.8972    1.4548   -1.0885 H   0  0  0  0  0  0  0  0  0  0  0  0
    1.4754    1.5675    0.5760 H   0  0  0  0  0  0  0  0  0  0  0  0
    2.4547    0.7298   -0.6301 H   0  0  0  0  0  0  0  0  0  0  0  0
   -1.0665   -1.2976    0.6473 H   0  0  0  0  0  0  0  0  0  0  0  0
   -2.3067    0.7774    1.2588 H   0  0  0  0  0  0  0  0  0  0  0  0
   -0.9414    1.8081    0.6783 H   0  0  0  0  0  0  0  0  0  0  0  0
   -2.5228   -0.2294   -1.0472 H   0  0  0  0  0  0  0  0  0  0  0  0
   -1.1594    0.8013   -1.6261 H   0  0  0  0  0  0  0  0  0  0  0  0
  1  2  1  0  0  0  0
  2  3  2  0  0  0  0
  2  4  1  0  0  0  0
  4  5  1  0  0  0  0
  4  6  1  0  0  0  0
  5  6  1  0  0  0  0
  1  7  1  0  0  0  0
  1  8  1  0  0  0  0
  1  9  1  0  0  0  0
  4 10  1  0  0  0  0
  5 11  1  0  0  0  0
  5 12  1  0  0  0  0
  6 13  1  0  0  0  0
  6 14  1  0  0  0  0
M  END
