 xtb: 6.7.1 (41059b4)
          04092503323D

 17 17  0     0  0            999 V2000
    1.8625   -1.4313   -0.0001 C   0  0  0  0  0  0  0  0  0  0  0  0
    0.5578   -0.7003   -0.0000 C   0  0  0  0  0  0  0  0  0  0  0  0
   -0.6492   -1.3880    0.0000 C   0  0  0  0  0  0  0  0  0  0  0  0
   -1.8361   -0.6744    0.0000 C   0  0  0  0  0  0  0  0  0  0  0  0
   -1.8839    0.6459   -0.0000 N   0  0  0  0  0  0  0  0  0  0  0  0
   -0.7375    1.3023   -0.0000 C   0  0  0  0  0  0  0  0  0  0  0  0
    0.5141    0.6981   -0.0001 C   0  0  0  0  0  0  0  0  0  0  0  0
    1.7649    1.5182   -0.0001 C   0  0  0  0  0  0  0  0  0  0  0  0
    2.4478   -1.1648   -0.8797 H   0  0  0  0  0  0  0  0  0  0  0  0
    2.4482   -1.1641    0.8791 H   0  0  0  0  0  0  0  0  0  0  0  0
    1.7030   -2.5066    0.0004 H   0  0  0  0  0  0  0  0  0  0  0  0
   -0.6619   -2.4680    0.0001 H   0  0  0  0  0  0  0  0  0  0  0  0
   -2.7933   -1.1792    0.0001 H   0  0  0  0  0  0  0  0  0  0  0  0
   -0.8229    2.3822   -0.0001 H   0  0  0  0  0  0  0  0  0  0  0  0
    2.3683    1.2964    0.8798 H   0  0  0  0  0  0  0  0  0  0  0  0
    2.3682    1.2963   -0.8801 H   0  0  0  0  0  0  0  0  0  0  0  0
    1.5270    2.5789   -0.0002 H   0  0  0  0  0  0  0  0  0  0  0  0
  1  2  1  0  0  0  0
  2  3  4  0  0  0  0
  3  4  4  0  0  0  0
  4  5  4  0  0  0  0
  5  6  4  0  0  0  0
  2  7  4  0  0  0  0
  6  7  4  0  0  0  0
  7  8  1  0  0  0  0
  1  9  1  0  0  0  0
  1 10  1  0  0  0  0
  1 11  1  0  0  0  0
  3 12  1  0  0  0  0
  4 13  1  0  0  0  0
  6 14  1  0  0  0  0
  8 15  1  0  0  0  0
  8 16  1  0  0  0  0
  8 17  1  0  0  0  0
M  END
