14
CONF1
C -0.7393582482 -1.8174632291 -0.0000401745
C 0.5969319548 -1.4352461541 0.0000215155
C 0.9087779722 -0.0710259574 0.0000683466
C -0.1040787141 0.8965888323 0.0000011364
C -1.4347688070 0.4890784666 -0.0000693704
C -1.7543573716 -0.8704145530 -0.0000725104
O -2.4727121615 1.3709631297 -0.0000738723
C 2.2706975020 0.3482996327 0.0006542458
N 3.3761015472 0.6933197412 -0.0006029354
H -0.9950818936 -2.8716959595 -0.0000190944
H 1.3924892738 -2.1702276088 0.0000990362
H 0.1584903816 1.9503021946 0.0000700227
H -2.7986633998 -1.1627112548 -0.0000884110
H -2.1323839313 2.2730622987 -0.0002331981
14
CONF2
C -0.7189191476 -1.8284432049 -0.0000488610
C 0.6091294484 -1.4278621026 0.0002835640
C 0.9018730270 -0.0568152431 0.0004337025
C -0.1185021856 0.8975819333 0.0003798367
C -1.4439079510 0.4726108031 0.0000532281
C -1.7461670084 -0.8905013904 -0.0001768253
O -2.4026399697 1.4407809583 -0.0000556266
C 2.2612140860 0.3728706445 0.0009169057
N 3.3676256654 0.7143199555 -0.0018648970
H -0.9623325390 -2.8854500611 -0.0001909066
H 1.4146332185 -2.1517605748 0.0004315013
H 0.1082881675 1.9569562024 0.0005767889
H -2.7828086697 -1.2174363421 -0.0004346382
H -3.2747033365 1.0299029908 -0.0003069027
