12
 xtb: 6.7.1 (41059b4)
C            1.19474506545366       -1.21188060177814       -0.00004591958654
C            1.86965784585075        0.00005777301132       -0.00001205206849
C            1.19469613920938        1.21196966878420        0.00002617184320
C           -0.19521878720610        1.20149897270497        0.00004720971541
C           -0.91533152688597        0.00000253735783        0.00001394195289
C           -0.19517112510766       -1.20146438251143       -0.00003953095513
Cl          -1.02919384598795       -2.72522910430958       -0.00012795234049
Cl          -2.64202118229554       -0.00003622505424        0.00001980003333
Cl          -1.02929740840297        2.72523532914140        0.00011014072197
Cl           3.61538132747132        0.00009438708654       -0.00003722034765
H            1.73098760054306       -2.15152383124243       -0.00008802895897
H            1.73090410093070        2.15163258483515        0.00005066838490
