14
 xtb: 6.7.1 (41059b4)
C           -2.47752094452268        0.10281804369047        0.40805406447753
C           -1.23589577947207        0.67079077365430       -0.26424853085477
C            0.03380368807646        0.00414108124732        0.20773626753197
O            0.09893762470194       -0.93325855915940        0.96800857643198
O            1.12091249435087        0.59939626952155       -0.34215539500029
C            2.38693325271624        0.02566599033108        0.04885705425469
H           -2.58224660472984       -0.96411006223264        0.19753188676466
H           -2.41896739984812        0.21788577358745        1.49323323195295
H           -3.37277754640539        0.61876200331245        0.05121728772100
H           -1.13482739455434        1.74794407171888       -0.08768098565799
H           -1.28079080006546        0.55549133159176       -1.35437404398772
H            2.50971875772631        0.07787425563212        1.13373166942663
H            3.14589537100229        0.62424809142297       -0.45482332526808
H            2.44607211697481       -1.01920430883294       -0.26706730852936
