 xtb: 6.7.1 (41059b4)
          04092500293D

 19 19  0     0  0            999 V2000
   -2.5080    0.7277   -0.0028 C   0  0  0  0  0  0  0  0  0  0  0  0
   -1.2228   -0.0396   -0.0230 C   0  0  0  0  0  0  0  0  0  0  0  0
   -1.1906   -1.4217   -0.0963 C   0  0  0  0  0  0  0  0  0  0  0  0
    0.0131   -2.1043   -0.1131 C   0  0  0  0  0  0  0  0  0  0  0  0
    1.2017   -1.4017   -0.0561 C   0  0  0  0  0  0  0  0  0  0  0  0
    1.2084   -0.0161    0.0180 C   0  0  0  0  0  0  0  0  0  0  0  0
   -0.0132    0.6591    0.0340 C   0  0  0  0  0  0  0  0  0  0  0  0
   -0.0814    2.0220    0.1054 O   0  0  0  0  0  0  0  0  0  0  0  0
    2.5032    0.7482    0.0800 C   0  0  0  0  0  0  0  0  0  0  0  0
   -3.3613    0.0570   -0.0547 H   0  0  0  0  0  0  0  0  0  0  0  0
   -2.5738    1.3221    0.9072 H   0  0  0  0  0  0  0  0  0  0  0  0
   -2.5434    1.4190   -0.8435 H   0  0  0  0  0  0  0  0  0  0  0  0
   -2.1215   -1.9681   -0.1406 H   0  0  0  0  0  0  0  0  0  0  0  0
    0.0245   -3.1822   -0.1705 H   0  0  0  0  0  0  0  0  0  0  0  0
    2.1428   -1.9324   -0.0690 H   0  0  0  0  0  0  0  0  0  0  0  0
    0.8113    2.3838    0.1391 H   0  0  0  0  0  0  0  0  0  0  0  0
    3.3434    0.0595    0.0596 H   0  0  0  0  0  0  0  0  0  0  0  0
    2.6035    1.4242   -0.7718 H   0  0  0  0  0  0  0  0  0  0  0  0
    2.5723    1.3338    0.9991 H   0  0  0  0  0  0  0  0  0  0  0  0
  1  2  1  0  0  0  0
  2  3  4  0  0  0  0
  3  4  4  0  0  0  0
  4  5  4  0  0  0  0
  5  6  4  0  0  0  0
  2  7  4  0  0  0  0
  6  7  4  0  0  0  0
  7  8  1  0  0  0  0
  6  9  1  0  0  0  0
  1 10  1  0  0  0  0
  1 11  1  0  0  0  0
  1 12  1  0  0  0  0
  3 13  1  0  0  0  0
  4 14  1  0  0  0  0
  5 15  1  0  0  0  0
  8 16  1  0  0  0  0
  9 17  1  0  0  0  0
  9 18  1  0  0  0  0
  9 19  1  0  0  0  0
M  END
