 xtb: 6.7.1 (41059b4)
          04092502303D

 20 20  0     0  0            999 V2000
    0.5854    1.7062   -0.0641 C   0  0  0  0  0  0  0  0  0  0  0  0
    1.3841    0.4120   -0.2676 C   0  0  0  0  0  0  0  0  0  0  0  0
    1.5929    0.2724   -1.3406 H   0  0  0  0  0  0  0  0  0  0  0  0
    0.5392   -0.7710    0.2192 C   0  0  0  0  0  0  0  0  0  0  0  0
    0.3529   -0.6582    1.2974 H   0  0  0  0  0  0  0  0  0  0  0  0
   -0.7992   -0.7504   -0.5232 C   0  0  0  0  0  0  0  0  0  0  0  0
   -0.5935   -0.8137   -1.6059 H   0  0  0  0  0  0  0  0  0  0  0  0
   -1.4839    0.6001   -0.2584 C   0  0  0  0  0  0  0  0  0  0  0  0
   -2.3988    0.6664   -0.8630 H   0  0  0  0  0  0  0  0  0  0  0  0
   -0.6693    1.6567   -0.7144 O   0  0  0  0  0  0  0  0  0  0  0  0
   -1.7560    0.7081    1.1001 O   0  0  0  0  0  0  0  0  0  0  0  0
   -1.6419   -1.7916   -0.1292 O   0  0  0  0  0  0  0  0  0  0  0  0
    1.1670   -2.0045   -0.0411 O   0  0  0  0  0  0  0  0  0  0  0  0
    2.5865    0.4056    0.4713 O   0  0  0  0  0  0  0  0  0  0  0  0
    1.1045    2.5636   -0.4990 H   0  0  0  0  0  0  0  0  0  0  0  0
    0.4522    1.8673    1.0144 H   0  0  0  0  0  0  0  0  0  0  0  0
   -2.3236    1.4726    1.2521 H   0  0  0  0  0  0  0  0  0  0  0  0
   -1.0853   -2.5738   -0.0198 H   0  0  0  0  0  0  0  0  0  0  0  0
    2.0657   -1.9425    0.3036 H   0  0  0  0  0  0  0  0  0  0  0  0
    3.1227    1.1622    0.2118 H   0  0  0  0  0  0  0  0  0  0  0  0
  1  2  1  0  0  0  0
  2  3  1  0  0  0  0
  2  4  1  0  0  0  0
  4  5  1  0  0  0  0
  4  6  1  0  0  0  0
  6  7  1  0  0  0  0
  6  8  1  0  0  0  0
  8  9  1  0  0  0  0
  1 10  1  0  0  0  0
  8 10  1  0  0  0  0
  8 11  1  0  0  0  0
  6 12  1  0  0  0  0
  4 13  1  0  0  0  0
  2 14  1  0  0  0  0
  1 15  1  0  0  0  0
  1 16  1  0  0  0  0
 11 17  1  0  0  0  0
 12 18  1  0  0  0  0
 13 19  1  0  0  0  0
 14 20  1  0  0  0  0
M  END
