11
 xtb: 6.7.1 (41059b4)
C           -2.11360212882351       -1.26766222233363       -0.14309282326942
C           -1.50351624638833        0.00000220788998        0.41572249250648
C           -2.11360422842493        1.26765164623651       -0.14312345028568
I            0.67527194001621       -0.00001481890461       -0.00680272496126
H           -1.64581643676358       -2.16356523650786        0.26976311266201
H           -3.18141090588827       -1.28643566983970        0.11316088122728
H           -2.02491800380674       -1.29914041967106       -1.23265905228899
H           -1.51681455706966        0.00001715341407        1.50677275139590
H           -2.02509557254389        1.29901172699344       -1.23270784738670
H           -1.64569484833208        2.16356664628730        0.26956634866726
H           -3.18136956826706        1.28652278836472        0.11330626787687
