11
 xtb: 6.7.1 (41059b4)
C           -1.42765786346571       -0.99928472946265        0.00045540009900
S           -0.00182014045343        0.12514102710849       -0.00066203652283
O           -0.01146321680541        0.85444085119490        1.27904309251171
O           -0.01156798981082        0.85168532036298       -1.28201193439201
C            1.44175749099778       -1.00369112425992        0.00017965671213
H           -1.40483282310507       -1.61042333542861       -0.90415447983046
H           -1.40351328279766       -1.61030664053591        0.90510054950294
H           -2.30936293526013       -0.35447356098280        0.00104834438117
H            2.01216679741867       -0.80354012415857        0.90803230441665
H            1.09976212931999       -2.04048719671979       -0.01461940631247
H            2.02706151940229       -0.78361796883288       -0.89352873204502
