 xtb: 6.7.1 (41059b4)
          04092503093D

 13 13  0     0  0            999 V2000
   -1.8621   -0.0088    0.0000 C   0  0  0  0  0  0  0  0  0  0  0  0
   -1.1613   -1.2016    0.0000 C   0  0  0  0  0  0  0  0  0  0  0  0
    0.2223   -1.1987    0.0000 C   0  0  0  0  0  0  0  0  0  0  0  0
    0.9144    0.0061   -0.0000 C   0  0  0  0  0  0  0  0  0  0  0  0
    0.2099    1.2061    0.0000 C   0  0  0  0  0  0  0  0  0  0  0  0
   -1.1709    1.1923    0.0000 C   0  0  0  0  0  0  0  0  0  0  0  0
    2.2748    0.0582   -0.0000 O   0  0  0  0  0  0  0  0  0  0  0  0
   -2.9414   -0.0144    0.0000 H   0  0  0  0  0  0  0  0  0  0  0  0
   -1.6911   -2.1428    0.0000 H   0  0  0  0  0  0  0  0  0  0  0  0
    0.7699   -2.1328    0.0000 H   0  0  0  0  0  0  0  0  0  0  0  0
    0.7636    2.1315   -0.0000 H   0  0  0  0  0  0  0  0  0  0  0  0
   -1.7121    2.1267    0.0000 H   0  0  0  0  0  0  0  0  0  0  0  0
    2.6357   -0.8366   -0.0000 H   0  0  0  0  0  0  0  0  0  0  0  0
  1  2  4  0  0  0  0
  2  3  4  0  0  0  0
  3  4  4  0  0  0  0
  4  5  4  0  0  0  0
  1  6  4  0  0  0  0
  5  6  4  0  0  0  0
  4  7  1  0  0  0  0
  1  8  1  0  0  0  0
  2  9  1  0  0  0  0
  3 10  1  0  0  0  0
  5 11  1  0  0  0  0
  6 12  1  0  0  0  0
  7 13  1  0  0  0  0
M  END
