7
CONF2
C 0.2390199778 0.0208159408 0.0301840799
N -1.3921025186 0.0111418732 -0.2161628425
O -1.8664295883 0.9789773983 -0.7526458761
O -1.9412781429 -0.9897573158 0.1720562510
Cl 0.8712947716 -1.3538608831 -0.8896162000
Cl 0.9052989103 1.5418733309 -0.5353281274
Cl 0.4739058091 -0.1907424155 1.7706181104
7
CONF1
C 0.2449362154 -0.0004452515 0.0046916183
N -1.3912440900 0.0027260003 -0.2204702870
O -1.9046537144 1.0914609319 -0.2638158709
O -1.9088395759 -1.0840551843 -0.2634915746
Cl 0.9075233253 -1.4578204178 -0.7228768999
Cl 0.9128700990 1.4554246058 -0.7209679770
Cl 0.4359301970 -0.0019699806 1.7715487241
