13
 xtb: 6.7.1 (41059b4)
C           -1.93404422329144       -1.20872786112076       -0.00001526249716
C           -0.54269178383431       -1.21025629055102       -0.00005975613334
C            0.13819871546408       -0.00059830699486       -0.00007335062837
C           -0.54856701575156        1.20851463569374       -0.00005055679867
C           -1.93705957249618        1.20706743838625       -0.00000754293302
C           -2.63278992471100       -0.00151851844941        0.00001332865409
O           -3.99686119510301        0.06273379575554        0.00005955785029
Br           2.05152616665062        0.00282113325451       -0.00014154313464
H           -2.47159127182240       -2.15378548049410        0.00000023878440
H            0.00147355425965       -2.14733673350805       -0.00007726337999
H           -0.00518822142845        2.14613632021449       -0.00006241194165
H           -2.49294521080459        2.13826254557978        0.00001368928451
H           -4.35854826953399       -0.83049066439215        0.00005720610936
