 xtb: 6.7.1 (41059b4)
          04082522383D

 14 13  0     0  0            999 V2000
   -2.4606    0.1816   -0.4661 C   0  0  0  0  0  0  0  0  0  0  0  0
   -1.2297    0.6574    0.2918 C   0  0  0  0  0  0  0  0  0  0  0  0
    0.0361    0.0271   -0.2423 C   0  0  0  0  0  0  0  0  0  0  0  0
    0.0990   -0.8213   -1.0899 O   0  0  0  0  0  0  0  0  0  0  0  0
    1.1149    0.5430    0.3681 O   0  0  0  0  0  0  0  0  0  0  0  0
    2.3731    0.0233   -0.0396 C   0  0  0  0  0  0  0  0  0  0  0  0
   -2.3871    0.4554   -1.5153 H   0  0  0  0  0  0  0  0  0  0  0  0
   -2.5425   -0.9004   -0.4067 H   0  0  0  0  0  0  0  0  0  0  0  0
   -3.3588    0.6279   -0.0476 H   0  0  0  0  0  0  0  0  0  0  0  0
   -1.3031    0.4009    1.3511 H   0  0  0  0  0  0  0  0  0  0  0  0
   -1.1200    1.7416    0.2270 H   0  0  0  0  0  0  0  0  0  0  0  0
    2.4237   -1.0488    0.1612 H   0  0  0  0  0  0  0  0  0  0  0  0
    3.1239    0.5563    0.5378 H   0  0  0  0  0  0  0  0  0  0  0  0
    2.5223    0.1870   -1.1087 H   0  0  0  0  0  0  0  0  0  0  0  0
  1  2  1  0  0  0  0
  2  3  1  0  0  0  0
  3  4  2  0  0  0  0
  3  5  1  0  0  0  0
  5  6  1  0  0  0  0
  1  7  1  0  0  0  0
  1  8  1  0  0  0  0
  1  9  1  0  0  0  0
  2 10  1  0  0  0  0
  2 11  1  0  0  0  0
  6 12  1  0  0  0  0
  6 13  1  0  0  0  0
  6 14  1  0  0  0  0
M  END
