9
 xtb: 6.7.1 (41059b4)
C           -1.71765174401974        0.37292975385501       -0.03939658044279
C           -0.59461735581621       -0.64717959147389        0.05750234645755
S            1.09263033833101        0.09813397511860       -0.04143884855972
H           -1.69106288468803        1.06843514039274        0.80481789748161
H           -1.63824653843973        0.95563176852372       -0.96043862121173
H           -2.69033456992228       -0.13254944652640       -0.02806230596136
H           -0.62890100041724       -1.34663938607834       -0.78382009766940
H           -0.66595951595930       -1.23749533354065        0.97542744087797
H            0.97509202267030        0.87164804733442        1.05278721807040
