 xtb: 6.7.1 (41059b4)
          04092505413D

  9  9  0     0  0            999 V2000
    0.4685    0.7260   -0.0000 C   0  0  0  0  0  0  0  0  0  0  0  0
    0.3945   -0.7687    0.0000 C   0  0  0  0  0  0  0  0  0  0  0  0
   -0.8629    0.0427   -0.0000 C   0  0  0  0  0  0  0  0  0  0  0  0
    0.7891    1.2227   -0.9031 H   0  0  0  0  0  0  0  0  0  0  0  0
    0.7890    1.2228    0.9030 H   0  0  0  0  0  0  0  0  0  0  0  0
    0.6645   -1.2947   -0.9030 H   0  0  0  0  0  0  0  0  0  0  0  0
    0.6644   -1.2947    0.9031 H   0  0  0  0  0  0  0  0  0  0  0  0
   -1.4534    0.0719   -0.9031 H   0  0  0  0  0  0  0  0  0  0  0  0
   -1.4534    0.0720    0.9031 H   0  0  0  0  0  0  0  0  0  0  0  0
  1  2  1  0  0  0  0
  1  3  1  0  0  0  0
  2  3  1  0  0  0  0
  1  4  1  0  0  0  0
  1  5  1  0  0  0  0
  2  6  1  0  0  0  0
  2  7  1  0  0  0  0
  3  8  1  0  0  0  0
  3  9  1  0  0  0  0
M  END
