6
CONF1
C 0.7215711217 0.0154331643 0.0000128099
O -0.7029569489 -0.0671599452 0.0000475270
H 1.1078611546 0.5236241511 -0.8950506599
H 1.0956547864 -1.0108842312 0.0002987654
H 1.1078761662 0.5241252627 0.8947843741
H -1.0516308791 0.8294732825 -0.0000963799
6
CONF2
C 0.7206523374 0.0710680393 0.0000575238
O -0.7080643318 -0.0101743725 0.0005472753
H 1.1949702796 -0.9170912645 0.0019573307
H 1.0580037483 0.6164221615 0.8896372397
H 1.0580562561 0.6131262910 -0.8915581979
H -0.9616532780 -0.9355920328 -0.0006296482
