 xtb: 6.7.1 (41059b4)
          04092502303D

 20 20  0     0  0            999 V2000
    0.6209    1.6951   -0.0016 C   0  0  0  0  0  0  0  0  0  0  0  0
    1.4065    0.4053   -0.2524 C   0  0  0  0  0  0  0  0  0  0  0  0
    1.6113    0.3025   -1.3307 H   0  0  0  0  0  0  0  0  0  0  0  0
    0.5465   -0.7893    0.1815 C   0  0  0  0  0  0  0  0  0  0  0  0
    0.3755   -0.7276    1.2684 H   0  0  0  0  0  0  0  0  0  0  0  0
   -0.8075   -0.7360   -0.5349 C   0  0  0  0  0  0  0  0  0  0  0  0
   -0.6481   -0.8872   -1.6110 H   0  0  0  0  0  0  0  0  0  0  0  0
   -1.4622    0.6457   -0.2991 C   0  0  0  0  0  0  0  0  0  0  0  0
   -2.3483    0.7571   -0.9495 H   0  0  0  0  0  0  0  0  0  0  0  0
   -0.6177    1.6794   -0.6873 O   0  0  0  0  0  0  0  0  0  0  0  0
   -1.8451    0.7644    1.0404 O   0  0  0  0  0  0  0  0  0  0  0  0
   -1.6131   -1.7622    0.0132 O   0  0  0  0  0  0  0  0  0  0  0  0
    1.2492   -1.9707   -0.1251 O   0  0  0  0  0  0  0  0  0  0  0  0
    2.6043    0.4538    0.4727 O   0  0  0  0  0  0  0  0  0  0  0  0
    1.1666    2.5541   -0.3896 H   0  0  0  0  0  0  0  0  0  0  0  0
    0.4652    1.8202    1.0757 H   0  0  0  0  0  0  0  0  0  0  0  0
   -1.9362   -0.1273    1.4068 H   0  0  0  0  0  0  0  0  0  0  0  0
   -2.4376   -1.8215   -0.4822 H   0  0  0  0  0  0  0  0  0  0  0  0
    0.6605   -2.7157    0.0431 H   0  0  0  0  0  0  0  0  0  0  0  0
    2.9987   -0.4267    0.4315 H   0  0  0  0  0  0  0  0  0  0  0  0
  1  2  1  0  0  0  0
  2  3  1  0  0  0  0
  2  4  1  0  0  0  0
  4  5  1  0  0  0  0
  4  6  1  0  0  0  0
  6  7  1  0  0  0  0
  6  8  1  0  0  0  0
  8  9  1  0  0  0  0
  1 10  1  0  0  0  0
  8 10  1  0  0  0  0
  8 11  1  0  0  0  0
  6 12  1  0  0  0  0
  4 13  1  0  0  0  0
  2 14  1  0  0  0  0
  1 15  1  0  0  0  0
  1 16  1  0  0  0  0
 11 17  1  0  0  0  0
 12 18  1  0  0  0  0
 13 19  1  0  0  0  0
 14 20  1  0  0  0  0
M  END
