19
 xtb: 6.7.1 (41059b4)
C            2.19754946661196       -1.18271402609940       -0.10495493972387
C            1.42536755159627        0.12165173686925       -0.05424173493032
O            1.98405867439998        1.21430943539386       -0.02830818974246
N            0.06849160348393        0.01452838538521       -0.02618426969203
C           -0.71700882826070       -1.22449431978090       -0.03696556045813
C           -2.12283177102382       -0.74371698113363        0.33621107279699
C           -2.17679955456755        0.66062293222968       -0.27634963800709
C           -0.77875894372555        1.21465568986237        0.00612914139896
H            3.24291068146178       -0.95007442307260       -0.30493773702440
H            1.81632009822004       -1.86040459262194       -0.87525097658064
H            2.13040810557868       -1.70257903688623        0.85725587996125
H           -0.71536845332305       -1.68612201360227       -1.03679227296973
H           -0.32286006884305       -1.95817406677929        0.67415478779038
H           -2.90361852922172       -1.41240482661040       -0.03455822041972
H           -2.21526165295072       -0.68011328502499        1.42632259647359
H           -2.34157833873399        0.59050824612981       -1.35762867218493
H           -2.96710811541012        1.28447036913635        0.14781738213491
H           -0.43320643249553        1.94286401043137       -0.73297805642821
H           -0.72066865589153        1.69462322856180        0.99293593967409
