12
 xtb: 6.7.1 (41059b4)
C           -1.95231239883543       -0.23335449782773       -0.53815212629328
C           -1.19389288913239       -0.06159908356691        0.77416026196551
C            0.12438730027369        0.69395585346736        0.63083032179102
S            1.39064785437434       -0.15655863307072       -0.41444843225385
H           -1.35299534668204       -0.79094159039886       -1.26300948064645
H           -2.89064495132982       -0.77288914294530       -0.38106949239196
H           -2.19384957566019        0.74042225533282       -0.97823164378334
H           -1.00138046993862       -1.04087044808043        1.22935233940675
H           -1.81502194186784        0.49493008224055        1.48976775406960
H           -0.03789273561301        1.65611560177382        0.13238757068478
H            0.57055899350284        0.90348261200675        1.60710394102947
H            1.58672036856346       -1.19759062487398        0.41431076126405
