12
 xtb: 6.7.1 (41059b4)
C            1.03074097127304        1.34320353922548        0.00022231481766
C            0.33599004713960        0.18481800073760        0.00011350432110
C            1.03402323763870       -1.09813902191742       -0.00004241807236
O            0.52716989434255       -2.20091893806279       -0.00001663336972
N            2.43734364278581       -0.95364249511420       -0.00025758857108
C            3.18933294413273        0.20838426095180       -0.00011747270979
O            4.40250713920296        0.24017162243587       -0.00021569936896
N            2.40099138241761        1.35720528645242        0.00014680662394
I           -1.75072490703688        0.15479742966361        0.00026259377944
H            0.54737035649702        2.31370219915250        0.00038736295958
H            2.96828847686298       -1.81505805776038       -0.00035885715946
H            2.90822056859621        2.22849920415928        0.00018526383538
