 xtb: 6.7.1 (41059b4)
          04082523293D

 15 14  0     0  0            999 V2000
    0.7562   -1.2550   -0.4723 C   0  0  0  0  0  0  0  0  0  0  0  0
    0.0015    0.0000   -0.0173 C   0  0  0  0  0  0  0  0  0  0  0  0
   -1.4200   -0.0013   -0.5785 C   0  0  0  0  0  0  0  0  0  0  0  0
    0.7535    1.2570   -0.4716 C   0  0  0  0  0  0  0  0  0  0  0  0
   -0.1361   -0.0005    1.3966 O   0  0  0  0  0  0  0  0  0  0  0  0
    1.7709   -1.2559   -0.0761 H   0  0  0  0  0  0  0  0  0  0  0  0
    0.2445   -2.1448   -0.1130 H   0  0  0  0  0  0  0  0  0  0  0  0
    0.8087   -1.2938   -1.5567 H   0  0  0  0  0  0  0  0  0  0  0  0
   -1.9500   -0.8827   -0.2286 H   0  0  0  0  0  0  0  0  0  0  0  0
   -1.4009   -0.0012   -1.6643 H   0  0  0  0  0  0  0  0  0  0  0  0
   -1.9518    0.8789   -0.2284 H   0  0  0  0  0  0  0  0  0  0  0  0
    1.7682    1.2598   -0.0756 H   0  0  0  0  0  0  0  0  0  0  0  0
    0.8057    1.2966   -1.5560 H   0  0  0  0  0  0  0  0  0  0  0  0
    0.2400    2.1454   -0.1117 H   0  0  0  0  0  0  0  0  0  0  0  0
    0.7428    0.0004    1.7912 H   0  0  0  0  0  0  0  0  0  0  0  0
  1  2  1  0  0  0  0
  2  3  1  0  0  0  0
  2  4  1  0  0  0  0
  2  5  1  0  0  0  0
  1  6  1  0  0  0  0
  1  7  1  0  0  0  0
  1  8  1  0  0  0  0
  3  9  1  0  0  0  0
  3 10  1  0  0  0  0
  3 11  1  0  0  0  0
  4 12  1  0  0  0  0
  4 13  1  0  0  0  0
  4 14  1  0  0  0  0
  5 15  1  0  0  0  0
M  END
