 xtb: 6.7.1 (41059b4)
          04082522483D

 11 10  0     0  0            999 V2000
   -3.5883   -0.5977   -0.2275 C   0  0  0  0  0  0  0  0  0  0  0  0
   -2.1491   -0.6697    0.2722 C   0  0  0  0  0  0  0  0  0  0  0  0
   -1.2495    0.1862   -0.5959 C   0  0  0  0  0  0  0  0  0  0  0  0
    0.8088    0.1236    0.0654 I   0  0  0  0  0  0  0  0  0  0  0  0
   -4.2324   -1.2121    0.3963 H   0  0  0  0  0  0  0  0  0  0  0  0
   -3.9554    0.4261   -0.1968 H   0  0  0  0  0  0  0  0  0  0  0  0
   -3.6582   -0.9570   -1.2522 H   0  0  0  0  0  0  0  0  0  0  0  0
   -1.8063   -1.7066    0.2516 H   0  0  0  0  0  0  0  0  0  0  0  0
   -2.1036   -0.3235    1.3072 H   0  0  0  0  0  0  0  0  0  0  0  0
   -1.5447    1.2324   -0.5654 H   0  0  0  0  0  0  0  0  0  0  0  0
   -1.2459   -0.1586   -1.6272 H   0  0  0  0  0  0  0  0  0  0  0  0
  1  2  1  0  0  0  0
  2  3  1  0  0  0  0
  3  4  1  0  0  0  0
  1  5  1  0  0  0  0
  1  6  1  0  0  0  0
  1  7  1  0  0  0  0
  2  8  1  0  0  0  0
  2  9  1  0  0  0  0
  3 10  1  0  0  0  0
  3 11  1  0  0  0  0
M  END
