14
 xtb: 6.7.1 (41059b4)
C           -2.48574550439604        0.02551651835994        0.31829448283280
C           -1.23294038995346        0.72946734267753       -0.18292335212527
C            0.03052549978057       -0.01544698882714        0.17388655223790
O            0.08569514926610       -1.10174053940274        0.70049542651498
O            1.12605729372308        0.69871343754264       -0.18486966599156
C            2.38614341580947        0.05673551706786        0.09944050224803
H           -2.46430813171341       -0.07935044903929        1.40579746503343
H           -3.37795037777278        0.59303891032672        0.04118627356576
H           -2.56450654882904       -0.97810838974113       -0.10560765341612
H           -1.14973222582268        1.74695228484597        0.21588622643722
H           -1.24667931383329        0.84248221831373       -1.27429238491350
H            2.46178412084191       -0.89157745153941       -0.43956030423654
H            2.48432087985971       -0.13406036557699        1.17152637924068
H            3.15202375149815        0.75447748412148       -0.23940594985095
