 xtb: 6.7.1 (41059b4)
          04092502303D

 20 20  0     0  0            999 V2000
    0.6313    1.4557   -0.0761 C   0  0  0  0  0  0  0  0  0  0  0  0
    1.5111    0.1963    0.0824 C   0  0  0  0  0  0  0  0  0  0  0  0
    2.4361    0.2981   -0.4998 H   0  0  0  0  0  0  0  0  0  0  0  0
    0.7389   -1.0335   -0.4610 C   0  0  0  0  0  0  0  0  0  0  0  0
    1.2150   -1.9515   -0.0932 H   0  0  0  0  0  0  0  0  0  0  0  0
   -0.7078   -0.9792    0.0621 C   0  0  0  0  0  0  0  0  0  0  0  0
   -1.2679   -1.8514   -0.2891 H   0  0  0  0  0  0  0  0  0  0  0  0
   -1.3984    0.3192   -0.4735 C   0  0  0  0  0  0  0  0  0  0  0  0
   -2.0223    0.1007   -1.3494 H   0  0  0  0  0  0  0  0  0  0  0  0
   -0.4308    1.2247   -0.9750 O   0  0  0  0  0  0  0  0  0  0  0  0
   -2.1856    0.8898    0.5063 O   0  0  0  0  0  0  0  0  0  0  0  0
   -0.7508   -1.0129    1.4679 O   0  0  0  0  0  0  0  0  0  0  0  0
    0.8036   -1.1003   -1.8560 O   0  0  0  0  0  0  0  0  0  0  0  0
    1.8071    0.0547    1.4619 O   0  0  0  0  0  0  0  0  0  0  0  0
    1.1996    2.2881   -0.4909 H   0  0  0  0  0  0  0  0  0  0  0  0
    0.2498    1.7495    0.9098 H   0  0  0  0  0  0  0  0  0  0  0  0
   -1.9785    0.4369    1.3461 H   0  0  0  0  0  0  0  0  0  0  0  0
    0.0368   -0.5561    1.8138 H   0  0  0  0  0  0  0  0  0  0  0  0
    0.4157   -0.2875   -2.2122 H   0  0  0  0  0  0  0  0  0  0  0  0
    2.4878   -0.6176    1.5790 H   0  0  0  0  0  0  0  0  0  0  0  0
  1  2  1  0  0  0  0
  2  3  1  0  0  0  0
  2  4  1  0  0  0  0
  4  5  1  0  0  0  0
  4  6  1  0  0  0  0
  6  7  1  0  0  0  0
  6  8  1  0  0  0  0
  8  9  1  0  0  0  0
  1 10  1  0  0  0  0
  8 10  1  0  0  0  0
  8 11  1  0  0  0  0
  6 12  1  0  0  0  0
  4 13  1  0  0  0  0
  2 14  1  0  0  0  0
  1 15  1  0  0  0  0
  1 16  1  0  0  0  0
 11 17  1  0  0  0  0
 12 18  1  0  0  0  0
 13 19  1  0  0  0  0
 14 20  1  0  0  0  0
M  END
