20
 xtb: 6.7.1 (41059b4)
C            0.60533915787659        1.69904488634021        0.01274311877056
C            1.39189794716999        0.42239399160634       -0.26277719868242
H            1.59795979103118        0.34547864785714       -1.34079625571307
C            0.54820793127495       -0.76619762573958        0.17470580172627
H            0.37881311668377       -0.68747324164511        1.25936854176938
C           -0.79248278449287       -0.74159244065433       -0.54106534017910
H           -0.62720285894367       -0.87167038792029       -1.62238264262826
C           -1.48726558281353        0.60989372395544       -0.31843923247192
H           -2.36082560185277        0.69784357448554       -0.98031644154675
O           -0.64520339667387        1.66941491947090       -0.68771615461828
O           -1.87328590686083        0.75587714917573        1.03637311726434
O           -1.66703789682147       -1.75423781021274       -0.04229709013674
O            1.16612126531550       -2.02415952913080       -0.13818035900113
O            2.61181970831634        0.48028564024705        0.48615248381135
H            1.14286892512464        2.57107609614104       -0.36552661275122
H            0.44817016013969        1.81684403992340        1.09295037777384
H           -2.16851270850922       -0.11770171728386        1.33174363839559
H           -1.15063723120036       -2.56986307903020       -0.00356334977517
H            1.83472700831371       -2.19403734338277        0.53460408563355
H            3.28464046161887       -0.00376041425745       -0.00248102681093
