 xtb: 6.7.1 (41059b4)
          04092501253D

  9  8  0     0  0            999 V2000
   -1.6946    0.4085   -0.0200 C   0  0  0  0  0  0  0  0  0  0  0  0
   -0.6174   -0.6535    0.0727 C   0  0  0  0  0  0  0  0  0  0  0  0
    1.0395    0.1395   -0.0268 S   0  0  0  0  0  0  0  0  0  0  0  0
   -1.6156    0.9474   -0.9615 H   0  0  0  0  0  0  0  0  0  0  0  0
   -2.6777   -0.0542    0.0381 H   0  0  0  0  0  0  0  0  0  0  0  0
   -1.5943    1.1224    0.7945 H   0  0  0  0  0  0  0  0  0  0  0  0
   -0.6916   -1.3624   -0.7519 H   0  0  0  0  0  0  0  0  0  0  0  0
   -0.6697   -1.1853    1.0228 H   0  0  0  0  0  0  0  0  0  0  0  0
    1.7371   -0.9897    0.0771 H   0  0  0  0  0  0  0  0  0  0  0  0
  1  2  1  0  0  0  0
  2  3  1  0  0  0  0
  1  4  1  0  0  0  0
  1  5  1  0  0  0  0
  1  6  1  0  0  0  0
  2  7  1  0  0  0  0
  2  8  1  0  0  0  0
  3  9  1  0  0  0  0
M  END
