20
 xtb: 6.7.1 (41059b4)
C           -1.25022117018989       -0.96712247942295        1.25881751718214
C           -1.00860260128905       -0.11605650589412        0.00011955184082
C           -1.93642541346304        1.10000822081434        0.00084539271904
C           -1.25036740420425       -0.96573762985586       -1.25947864777051
C            0.43846083538176        0.37236592975910        0.00039033790937
O            0.79471424843450        1.52775195189333        0.00132999479953
O            1.31039206952158       -0.66698561761995       -0.00047998626044
C            2.70252525505088       -0.28937882763092       -0.00019021347601
H           -1.06212494018295       -0.38507297257784        2.16676914892785
H           -2.29405235191196       -1.29699710152473        1.27812422154894
H           -0.60672066712757       -1.84983116991949        1.27225550615727
H           -1.76858466093790        1.72132683867073        0.88399351491918
H           -2.97816749807719        0.76448492895999        0.00032992842748
H           -1.76814731970696        1.72271065112471       -0.88124377355502
H           -2.29415149547696       -1.29575405464592       -1.27890798430757
H           -1.06257193064193       -0.38264769311645       -2.16682344636141
H           -0.60674240836878       -1.84833582455451       -1.27405441589978
H            2.93810915489017        0.29727868010386        0.89158528151617
H            2.93695259483836        0.30317986462621       -0.88833070888552
H            3.25895780048630       -1.22665121059645       -0.00357432573431
