 xtb: 6.7.1 (41059b4)
          04092502303D

 20 20  0     0  0            999 V2000
    0.6056    1.4384   -0.0027 C   0  0  0  0  0  0  0  0  0  0  0  0
    1.5286    0.1979    0.0842 C   0  0  0  0  0  0  0  0  0  0  0  0
    2.4105    0.3327   -0.5507 H   0  0  0  0  0  0  0  0  0  0  0  0
    0.7524   -1.0389   -0.4247 C   0  0  0  0  0  0  0  0  0  0  0  0
    1.2314   -1.9399   -0.0297 H   0  0  0  0  0  0  0  0  0  0  0  0
   -0.6934   -0.9643    0.1077 C   0  0  0  0  0  0  0  0  0  0  0  0
   -1.2504   -1.8604   -0.2035 H   0  0  0  0  0  0  0  0  0  0  0  0
   -1.3762    0.2770   -0.5193 C   0  0  0  0  0  0  0  0  0  0  0  0
   -1.9125   -0.0117   -1.4365 H   0  0  0  0  0  0  0  0  0  0  0  0
   -0.4487    1.2419   -0.9361 O   0  0  0  0  0  0  0  0  0  0  0  0
   -2.2720    0.7922    0.4268 O   0  0  0  0  0  0  0  0  0  0  0  0
   -0.6504   -0.8866    1.5103 O   0  0  0  0  0  0  0  0  0  0  0  0
    0.7820   -1.1554   -1.8204 O   0  0  0  0  0  0  0  0  0  0  0  0
    2.0094    0.0116    1.3841 O   0  0  0  0  0  0  0  0  0  0  0  0
    1.1458    2.3185   -0.3507 H   0  0  0  0  0  0  0  0  0  0  0  0
    0.1932    1.6459    0.9925 H   0  0  0  0  0  0  0  0  0  0  0  0
   -2.6376    1.6172    0.0886 H   0  0  0  0  0  0  0  0  0  0  0  0
   -1.4702   -0.4599    1.7978 H   0  0  0  0  0  0  0  0  0  0  0  0
    0.4988   -0.3139   -2.2025 H   0  0  0  0  0  0  0  0  0  0  0  0
    1.2698   -0.3115    1.9222 H   0  0  0  0  0  0  0  0  0  0  0  0
  1  2  1  0  0  0  0
  2  3  1  0  0  0  0
  2  4  1  0  0  0  0
  4  5  1  0  0  0  0
  4  6  1  0  0  0  0
  6  7  1  0  0  0  0
  6  8  1  0  0  0  0
  8  9  1  0  0  0  0
  1 10  1  0  0  0  0
  8 10  1  0  0  0  0
  8 11  1  0  0  0  0
  6 12  1  0  0  0  0
  4 13  1  0  0  0  0
  2 14  1  0  0  0  0
  1 15  1  0  0  0  0
  1 16  1  0  0  0  0
 11 17  1  0  0  0  0
 12 18  1  0  0  0  0
 13 19  1  0  0  0  0
 14 20  1  0  0  0  0
M  END
