20
 xtb: 6.7.1 (41059b4)
C            0.87408522646363        1.36887572390722       -0.64901840009291
C            1.60015946993016        0.16002347230992       -0.07408737674273
H            2.57711892944750        0.04619991500947       -0.56795726369296
C            0.77591228466208       -1.10642080561073       -0.31513065487402
H            1.21463975107166       -1.93284142822227        0.26409450568869
C           -0.68312820441803       -0.90265870098821        0.12850829442306
H           -1.29178219499661       -1.74002694958793       -0.24048691530014
C           -1.26980718193408        0.39887554234703       -0.44340548531661
H           -1.34891109318075        0.34645573674634       -1.54026347954255
O           -0.42451308401334        1.50756423403299       -0.08733121710063
O           -2.53362658061416        0.63685196580164        0.06789671395985
O           -0.81531213984485       -0.90546530681429        1.54699969848882
O            0.85062030943607       -1.35059643900540       -1.72166294977554
O            1.76252276121190        0.26081094873513        1.35110827187970
H            0.82781341686284        1.26817228894679       -1.74554359976596
H            1.41588217123403        2.29392620887599       -0.41592410228651
H           -2.49141865308272        0.39287809025416        1.00649178936810
H           -0.09235370019095       -0.35224313122334        1.88650287298634
H            0.42301596008040       -2.19412198886371       -1.90475535572675
H            1.97014720106003        1.17724819686083        1.56703904333610
