 xtb: 6.7.1 (41059b4)
          04092503063D

 12 11  0     0  0            999 V2000
   -2.1762    0.2697   -0.1274 C   0  0  0  0  0  0  0  0  0  0  0  0
   -0.9171   -0.3934    0.3947 C   0  0  0  0  0  0  0  0  0  0  0  0
    0.5651    0.3731   -0.3592 S   0  0  0  0  0  0  0  0  0  0  0  0
    1.8316   -0.6312    0.4641 C   0  0  0  0  0  0  0  0  0  0  0  0
   -2.1720    1.3303    0.1123 H   0  0  0  0  0  0  0  0  0  0  0  0
   -2.2396    0.1626   -1.2076 H   0  0  0  0  0  0  0  0  0  0  0  0
   -3.0533   -0.1896    0.3238 H   0  0  0  0  0  0  0  0  0  0  0  0
   -0.8984   -1.4550    0.1427 H   0  0  0  0  0  0  0  0  0  0  0  0
   -0.8301   -0.2755    1.4761 H   0  0  0  0  0  0  0  0  0  0  0  0
    1.6945   -1.6771    0.2023 H   0  0  0  0  0  0  0  0  0  0  0  0
    1.7629   -0.4941    1.5401 H   0  0  0  0  0  0  0  0  0  0  0  0
    2.7937   -0.2815    0.1057 H   0  0  0  0  0  0  0  0  0  0  0  0
  1  2  1  0  0  0  0
  2  3  1  0  0  0  0
  3  4  1  0  0  0  0
  1  5  1  0  0  0  0
  1  6  1  0  0  0  0
  1  7  1  0  0  0  0
  2  8  1  0  0  0  0
  2  9  1  0  0  0  0
  4 10  1  0  0  0  0
  4 11  1  0  0  0  0
  4 12  1  0  0  0  0
M  END
