14
CONF3
C 1.5933325979 -0.0326425703 -0.5613358088
C 0.6644717910 0.3709446374 0.6037155020
C -0.6770130322 -0.3699488823 0.6039180062
C -1.5824513290 0.0330722172 -0.5584432642
H 2.5140348371 -0.4977065021 -0.1986323901
H 1.1094450227 -0.7570506016 -1.2243101886
H 1.8823967467 0.8229372470 -1.1777202060
H 1.1701248419 0.1877827357 1.5581850990
H 0.4655771859 1.4494031249 0.5716614042
H -0.4899815313 -1.4519476716 0.5726085379
H -1.1980424484 -0.1746009937 1.5495110862
H -2.5211770376 -0.5293191784 -0.5476098772
H -1.1017989122 -0.1453428826 -1.5260613924
H -1.8293756864 1.0992018130 -0.5043436299
