11
 xtb: 6.7.1 (41059b4)
C           -2.71365377401507       -0.92402012014827       -0.16517900665487
C           -2.30435868167095        0.45259911805141        0.39090564330377
C           -1.12053048217609        1.08574771234175       -0.30707996675753
I            0.73279100870080       -0.05104939520020        0.01161619395147
H           -2.69473914727382       -1.69342656066757        0.60970146284950
H           -3.72190714799262       -0.90249816290430       -0.58646798696180
H           -2.03051915156946       -1.25092000469140       -0.95451775366995
H           -2.10237580603425        0.39814225370460        1.46487199996924
H           -3.13422721339213        1.16484918642941        0.27610955036901
H           -0.88778349869836        2.08047167179693        0.07136694297015
H           -1.23451300138985        1.11426199192579       -1.39146051791505
