8
 xtb: 6.7.1 (41059b4)
C           -0.47805425298734        0.58487902648673       -0.00018374241415
C            0.47810609354165       -0.58495622007870       -0.00012627455061
Cl           2.17817691742744        0.06888514217627       -0.00012156626270
Cl          -2.17812183493688       -0.06896588393498       -0.00010090785908
H           -0.36472691859779        1.19959823731336       -0.89431496336318
H           -0.36468383941151        1.19971741183283        0.89385861383006
H            0.36474194268356       -1.19970430272043        0.89398074026782
H            0.36477203144727       -1.19976641786873       -0.89419222723006
