 xtb: 6.7.1 (41059b4)
          04082523373D

  8  7  0     0  0            999 V2000
    1.7550    0.1879   -0.0001 C   0  0  0  0  0  0  0  0  0  0  0  0
    0.4824   -0.4234    0.0000 O   0  0  0  0  0  0  0  0  0  0  0  0
   -0.6086    0.3271    0.0001 C   0  0  0  0  0  0  0  0  0  0  0  0
   -1.7129   -0.1159   -0.0001 O   0  0  0  0  0  0  0  0  0  0  0  0
    2.2956   -0.1358   -0.8909 H   0  0  0  0  0  0  0  0  0  0  0  0
    2.2969   -0.1386    0.8890 H   0  0  0  0  0  0  0  0  0  0  0  0
    1.6700    1.2787    0.0017 H   0  0  0  0  0  0  0  0  0  0  0  0
   -0.3913    1.4212    0.0003 H   0  0  0  0  0  0  0  0  0  0  0  0
  1  2  1  0  0  0  0
  2  3  1  0  0  0  0
  3  4  2  0  0  0  0
  1  5  1  0  0  0  0
  1  6  1  0  0  0  0
  1  7  1  0  0  0  0
  3  8  1  0  0  0  0
M  END
