 xtb: 6.7.1 (41059b4)
          04092503303D

  9  8  0     0  0            999 V2000
    1.3119   -0.2405   -0.0342 C   0  0  0  0  0  0  0  0  0  0  0  0
   -0.0094    0.5188   -0.0934 C   0  0  0  0  0  0  0  0  0  0  0  0
   -1.1239   -0.3344   -0.2102 O   0  0  0  0  0  0  0  0  0  0  0  0
    1.3551   -0.8627    0.8589 H   0  0  0  0  0  0  0  0  0  0  0  0
    1.4143   -0.8797   -0.9079 H   0  0  0  0  0  0  0  0  0  0  0  0
    2.1428    0.4591   -0.0101 H   0  0  0  0  0  0  0  0  0  0  0  0
   -0.0408    1.1558   -0.9802 H   0  0  0  0  0  0  0  0  0  0  0  0
   -0.1109    1.1587    0.7963 H   0  0  0  0  0  0  0  0  0  0  0  0
   -1.1080   -0.9636    0.5198 H   0  0  0  0  0  0  0  0  0  0  0  0
  1  2  1  0  0  0  0
  2  3  1  0  0  0  0
  1  4  1  0  0  0  0
  1  5  1  0  0  0  0
  1  6  1  0  0  0  0
  2  7  1  0  0  0  0
  2  8  1  0  0  0  0
  3  9  1  0  0  0  0
M  END
