13
 xtb: 6.7.1 (41059b4)
C           -1.87276164079089       -0.00917609656870        0.00000781902002
C           -1.16682971727834       -1.20795813971123        0.00000564940535
C            0.22474911822676       -1.20968037888842        0.00000237637240
C            0.91585963839441        0.00215345332075        0.00000139143644
C            0.21759828346838        1.20907222257510        0.00000406857327
C           -1.17127096744420        1.19480218624309        0.00000721573471
O            2.28271938691725        0.06990177846731       -0.00000201600015
H           -2.95708351869931       -0.01210907728288        0.00001052643753
H           -1.69885270858549       -2.15412984143434        0.00000583754416
H            0.77228831370508       -2.14945884474981       -0.00000016441719
H            0.77460543574450        2.13973595972178        0.00000287384615
H           -1.71075976430639        2.13679967257240        0.00000810014003
H            2.64152616919533       -0.82458425330416       -0.00000032880685
