 xtb: 6.7.1 (41059b4)
          04082522263D

 14 13  0     0  0            999 V2000
   -2.1446    0.3975   -0.6927 C   0  0  0  0  0  0  0  0  0  0  0  0
   -1.3310    0.4413    0.6022 C   0  0  0  0  0  0  0  0  0  0  0  0
    0.0159   -0.2021    0.3698 C   0  0  0  0  0  0  0  0  0  0  0  0
    0.2853   -1.3535    0.5856 O   0  0  0  0  0  0  0  0  0  0  0  0
    0.8823    0.6768   -0.1507 O   0  0  0  0  0  0  0  0  0  0  0  0
    2.1785    0.1846   -0.4605 C   0  0  0  0  0  0  0  0  0  0  0  0
   -3.1241    0.8409   -0.5322 H   0  0  0  0  0  0  0  0  0  0  0  0
   -1.6357    0.9516   -1.4778 H   0  0  0  0  0  0  0  0  0  0  0  0
   -2.2777   -0.6310   -1.0198 H   0  0  0  0  0  0  0  0  0  0  0  0
   -1.8476   -0.1123    1.3861 H   0  0  0  0  0  0  0  0  0  0  0  0
   -1.1830    1.4752    0.9133 H   0  0  0  0  0  0  0  0  0  0  0  0
    2.1063   -0.7799   -0.9666 H   0  0  0  0  0  0  0  0  0  0  0  0
    2.7612    0.0595    0.4545 H   0  0  0  0  0  0  0  0  0  0  0  0
    2.6436    0.9256   -1.1058 H   0  0  0  0  0  0  0  0  0  0  0  0
  1  2  1  0  0  0  0
  2  3  1  0  0  0  0
  3  4  2  0  0  0  0
  3  5  1  0  0  0  0
  5  6  1  0  0  0  0
  1  7  1  0  0  0  0
  1  8  1  0  0  0  0
  1  9  1  0  0  0  0
  2 10  1  0  0  0  0
  2 11  1  0  0  0  0
  6 12  1  0  0  0  0
  6 13  1  0  0  0  0
  6 14  1  0  0  0  0
M  END
