 xtb: 6.7.1 (41059b4)
          04092507063D

 11 11  0     0  0            999 V2000
    1.4007   -0.0006   -0.0001 C   0  0  0  0  0  0  0  0  0  0  0  0
    0.6936   -1.1924   -0.0000 C   0  0  0  0  0  0  0  0  0  0  0  0
   -0.6922   -1.1330    0.0000 C   0  0  0  0  0  0  0  0  0  0  0  0
   -1.3717    0.0006   -0.0001 N   0  0  0  0  0  0  0  0  0  0  0  0
   -0.6912    1.1336   -0.0001 C   0  0  0  0  0  0  0  0  0  0  0  0
    0.6946    1.1918   -0.0001 C   0  0  0  0  0  0  0  0  0  0  0  0
    2.4816   -0.0011   -0.0001 H   0  0  0  0  0  0  0  0  0  0  0  0
    1.2037   -2.1435   -0.0001 H   0  0  0  0  0  0  0  0  0  0  0  0
   -1.2906   -2.0351   -0.0002 H   0  0  0  0  0  0  0  0  0  0  0  0
   -1.2887    2.0362    0.0000 H   0  0  0  0  0  0  0  0  0  0  0  0
    1.2056    2.1424   -0.0000 H   0  0  0  0  0  0  0  0  0  0  0  0
  1  2  4  0  0  0  0
  2  3  4  0  0  0  0
  3  4  4  0  0  0  0
  4  5  4  0  0  0  0
  1  6  4  0  0  0  0
  5  6  4  0  0  0  0
  1  7  1  0  0  0  0
  2  8  1  0  0  0  0
  3  9  1  0  0  0  0
  5 10  1  0  0  0  0
  6 11  1  0  0  0  0
M  END
