6
 xtb: 6.7.1 (41059b4)
C            0.72065233770967        0.07106803928266        0.00005752384211
O           -0.70806433214953       -0.01017437247052        0.00054727533292
H            1.19497028017634       -0.91709126490401        0.00195733069314
H            1.05800374879348        0.61642216176997        0.88963724004908
H            1.05805625660768        0.61312629131896       -0.89155819829309
H           -0.96165327844849       -0.93559203318320       -0.00062964824632
