 xtb: 6.7.1 (41059b4)
          04092501203D

 20 19  0     0  0            999 V2000
   -1.7213   -0.4813    1.4183 C   0  0  0  0  0  0  0  0  0  0  0  0
   -0.9917   -0.2529    0.0956 C   0  0  0  0  0  0  0  0  0  0  0  0
   -1.4923    1.0306   -0.5751 C   0  0  0  0  0  0  0  0  0  0  0  0
   -1.1960   -1.4495   -0.8396 C   0  0  0  0  0  0  0  0  0  0  0  0
    0.5007   -0.1047    0.3700 C   0  0  0  0  0  0  0  0  0  0  0  0
    1.0207   -0.1644    1.4526 O   0  0  0  0  0  0  0  0  0  0  0  0
    1.1913    0.1042   -0.7598 O   0  0  0  0  0  0  0  0  0  0  0  0
    2.5949    0.2563   -0.6119 C   0  0  0  0  0  0  0  0  0  0  0  0
   -2.7885   -0.5918    1.2429 H   0  0  0  0  0  0  0  0  0  0  0  0
   -1.3488   -1.3783    1.9061 H   0  0  0  0  0  0  0  0  0  0  0  0
   -1.5589    0.3576    2.0901 H   0  0  0  0  0  0  0  0  0  0  0  0
   -2.5568    0.9468   -0.7822 H   0  0  0  0  0  0  0  0  0  0  0  0
   -0.9658    1.2013   -1.5104 H   0  0  0  0  0  0  0  0  0  0  0  0
   -1.3340    1.8877    0.0761 H   0  0  0  0  0  0  0  0  0  0  0  0
   -0.6682   -1.2942   -1.7769 H   0  0  0  0  0  0  0  0  0  0  0  0
   -0.8257   -2.3622   -0.3774 H   0  0  0  0  0  0  0  0  0  0  0  0
   -2.2557   -1.5752   -1.0506 H   0  0  0  0  0  0  0  0  0  0  0  0
    3.0256   -0.6316   -0.1445 H   0  0  0  0  0  0  0  0  0  0  0  0
    2.8186    1.1233    0.0130 H   0  0  0  0  0  0  0  0  0  0  0  0
    2.9944    0.3938   -1.6134 H   0  0  0  0  0  0  0  0  0  0  0  0
  1  2  1  0  0  0  0
  2  3  1  0  0  0  0
  2  4  1  0  0  0  0
  2  5  1  0  0  0  0
  5  6  2  0  0  0  0
  5  7  1  0  0  0  0
  7  8  1  0  0  0  0
  1  9  1  0  0  0  0
  1 10  1  0  0  0  0
  1 11  1  0  0  0  0
  3 12  1  0  0  0  0
  3 13  1  0  0  0  0
  3 14  1  0  0  0  0
  4 15  1  0  0  0  0
  4 16  1  0  0  0  0
  4 17  1  0  0  0  0
  8 18  1  0  0  0  0
  8 19  1  0  0  0  0
  8 20  1  0  0  0  0
M  END
