 xtb: 6.7.1 (41059b4)
          04092502413D

  3  2  0     0  0            999 V2000
   -0.0000   -0.0544    0.0000 S   0  0  0  0  0  0  0  0  0  0  0  0
   -0.9574    0.8642    0.0000 H   0  0  0  0  0  0  0  0  0  0  0  0
    0.9574    0.8642   -0.0000 H   0  0  0  0  0  0  0  0  0  0  0  0
  1  2  1  0  0  0  0
  1  3  1  0  0  0  0
M  END
