11
CONF2
C -1.2783930929 0.2650994544 -0.0006351552
C -0.0055756009 -0.5812038642 0.0006084952
C 1.2816282287 0.2706402117 0.0001004649
H -2.1781280547 -0.3584200332 -0.0014956292
H -1.3178536526 0.9109628818 0.8834001672
H -1.3163358376 0.9113122469 -0.8844749549
H -0.0171829495 -1.2414695990 0.8747961640
H -0.0164786428 -1.2432101448 -0.8723004132
H 1.8951459646 0.0862342062 -0.8861687344
H 1.9065869843 0.0702107011 0.8748185626
H 1.0446393340 1.3395050824 0.0113321567
