 xtb: 6.7.1 (41059b4)
          04092501203D

 20 19  0     0  0            999 V2000
   -1.2402   -0.9603    1.2556 C   0  0  0  0  0  0  0  0  0  0  0  0
   -1.0126   -0.1116    0.0002 C   0  0  0  0  0  0  0  0  0  0  0  0
   -1.9439    1.0994    0.0009 C   0  0  0  0  0  0  0  0  0  0  0  0
   -1.2402   -0.9588   -1.2562 C   0  0  0  0  0  0  0  0  0  0  0  0
    0.4331    0.3726    0.0006 C   0  0  0  0  0  0  0  0  0  0  0  0
    0.7842    1.5227    0.0015 O   0  0  0  0  0  0  0  0  0  0  0  0
    1.2965   -0.6529   -0.0005 O   0  0  0  0  0  0  0  0  0  0  0  0
    2.6731   -0.3072   -0.0003 C   0  0  0  0  0  0  0  0  0  0  0  0
   -1.0620   -0.3701    2.1521 H   0  0  0  0  0  0  0  0  0  0  0  0
   -2.2670   -1.3184    1.2767 H   0  0  0  0  0  0  0  0  0  0  0  0
   -0.5704   -1.8162    1.2627 H   0  0  0  0  0  0  0  0  0  0  0  0
   -1.7665    1.7129    0.8804 H   0  0  0  0  0  0  0  0  0  0  0  0
   -2.9811    0.7739    0.0007 H   0  0  0  0  0  0  0  0  0  0  0  0
   -1.7665    1.7140   -0.8779 H   0  0  0  0  0  0  0  0  0  0  0  0
   -2.2670   -1.3169   -1.2778 H   0  0  0  0  0  0  0  0  0  0  0  0
   -1.0622   -0.3676   -2.1521 H   0  0  0  0  0  0  0  0  0  0  0  0
   -0.5705   -1.8147   -1.2644 H   0  0  0  0  0  0  0  0  0  0  0  0
    2.9171    0.2786    0.8884 H   0  0  0  0  0  0  0  0  0  0  0  0
    2.9161    0.2838   -0.8857 H   0  0  0  0  0  0  0  0  0  0  0  0
    3.2234   -1.2446   -0.0033 H   0  0  0  0  0  0  0  0  0  0  0  0
  1  2  1  0  0  0  0
  2  3  1  0  0  0  0
  2  4  1  0  0  0  0
  2  5  1  0  0  0  0
  5  6  2  0  0  0  0
  5  7  1  0  0  0  0
  7  8  1  0  0  0  0
  1  9  1  0  0  0  0
  1 10  1  0  0  0  0
  1 11  1  0  0  0  0
  3 12  1  0  0  0  0
  3 13  1  0  0  0  0
  3 14  1  0  0  0  0
  4 15  1  0  0  0  0
  4 16  1  0  0  0  0
  4 17  1  0  0  0  0
  8 18  1  0  0  0  0
  8 19  1  0  0  0  0
  8 20  1  0  0  0  0
M  END
