 xtb: 6.7.1 (41059b4)
          04092503063D

 12 11  0     0  0            999 V2000
   -2.2208    0.1208    0.1363 C   0  0  0  0  0  0  0  0  0  0  0  0
   -0.9092   -0.4691   -0.3428 C   0  0  0  0  0  0  0  0  0  0  0  0
    0.4730    0.1187    0.7044 S   0  0  0  0  0  0  0  0  0  0  0  0
    1.8257   -0.7640   -0.1211 C   0  0  0  0  0  0  0  0  0  0  0  0
   -2.1864    1.2065    0.0897 H   0  0  0  0  0  0  0  0  0  0  0  0
   -3.0382   -0.2325   -0.4891 H   0  0  0  0  0  0  0  0  0  0  0  0
   -2.4134   -0.1723    1.1655 H   0  0  0  0  0  0  0  0  0  0  0  0
   -0.6928   -0.1653   -1.3684 H   0  0  0  0  0  0  0  0  0  0  0  0
   -0.9228   -1.5586   -0.2822 H   0  0  0  0  0  0  0  0  0  0  0  0
    1.8883   -0.4466   -1.1587 H   0  0  0  0  0  0  0  0  0  0  0  0
    1.6536   -1.8353   -0.0585 H   0  0  0  0  0  0  0  0  0  0  0  0
    2.7388   -0.5031    0.4030 H   0  0  0  0  0  0  0  0  0  0  0  0
  1  2  1  0  0  0  0
  2  3  1  0  0  0  0
  3  4  1  0  0  0  0
  1  5  1  0  0  0  0
  1  6  1  0  0  0  0
  1  7  1  0  0  0  0
  2  8  1  0  0  0  0
  2  9  1  0  0  0  0
  4 10  1  0  0  0  0
  4 11  1  0  0  0  0
  4 12  1  0  0  0  0
M  END
