6
 xtb: 6.7.1 (41059b4)
C            0.00005300099964        1.81196642989430        0.00003657352573
C            0.00001909156641        0.48651956633264        0.00014076247616
Cl           1.45867224039995       -0.46010041684171       -0.00003658281520
Cl          -1.45868885591692       -0.46002215302375       -0.00005960150386
H           -0.93498395999158        2.35711269267439       -0.00001482013042
H            0.93511831427593        2.35706434737976        0.00000099423855
