10
 xtb: 6.7.1 (41059b4)
C           -1.27363102689375        0.26099681852655        0.00003611329934
C            0.01337688459268       -0.56443699626722        0.00001417497573
N            1.26241034256233        0.21143754375856       -0.00006310610550
H           -2.16042577756657       -0.38327685667217        0.00030760027157
H           -1.32533468421124        0.90406054968039        0.88565998421862
H           -1.32561393658775        0.90369992706542       -0.88583281927256
H            0.02969914417998       -1.22367344247385       -0.87680468059179
H            0.02977046768660       -1.22360577884651        0.87688224167782
H            1.27668205785723        0.82539802303208       -0.80868077891018
H            1.27677066001165        0.82539852342338        0.80855317387166
