 xtb: 6.7.1 (41059b4)
          04092504073D

 13 13  0     0  0            999 V2000
   -2.2202    0.0001   -0.0001 C   0  0  0  0  0  0  0  0  0  0  0  0
   -1.5297   -1.2021   -0.0001 C   0  0  0  0  0  0  0  0  0  0  0  0
   -0.1479   -1.2098    0.0001 C   0  0  0  0  0  0  0  0  0  0  0  0
    0.5470   -0.0000    0.0001 C   0  0  0  0  0  0  0  0  0  0  0  0
   -0.1478    1.2098    0.0001 C   0  0  0  0  0  0  0  0  0  0  0  0
   -1.5296    1.2022   -0.0001 C   0  0  0  0  0  0  0  0  0  0  0  0
    1.9614   -0.0000    0.0002 C   0  0  0  0  0  0  0  0  0  0  0  0
    3.1078    0.0000    0.0001 N   0  0  0  0  0  0  0  0  0  0  0  0
   -3.3000    0.0001   -0.0003 H   0  0  0  0  0  0  0  0  0  0  0  0
   -2.0709   -2.1365   -0.0001 H   0  0  0  0  0  0  0  0  0  0  0  0
    0.4004   -2.1404    0.0001 H   0  0  0  0  0  0  0  0  0  0  0  0
    0.4006    2.1403    0.0001 H   0  0  0  0  0  0  0  0  0  0  0  0
   -2.0707    2.1366   -0.0001 H   0  0  0  0  0  0  0  0  0  0  0  0
  1  2  4  0  0  0  0
  2  3  4  0  0  0  0
  3  4  4  0  0  0  0
  4  5  4  0  0  0  0
  1  6  4  0  0  0  0
  5  6  4  0  0  0  0
  4  7  1  0  0  0  0
  7  8  3  0  0  0  0
  1  9  1  0  0  0  0
  2 10  1  0  0  0  0
  3 11  1  0  0  0  0
  5 12  1  0  0  0  0
  6 13  1  0  0  0  0
M  END
