14
 xtb: 6.7.1 (41059b4)
C           -2.48332489559381       -0.00011389310101       -0.28027118351819
C           -1.23148198236343        0.74792873152529        0.15573305668237
C            0.03321292345339       -0.02209958875474       -0.13793944944948
O            0.09038853667615       -1.16820595852119       -0.51743672684706
O            1.12749205617638        0.74369138284157        0.09540027535261
C            2.38887495137762        0.08141528437860       -0.13267334021432
H           -2.54823255043009       -0.97095659797715        0.21597611895350
H           -3.37783738171414        0.57894124266897       -0.03612598966543
H           -2.47183692398470       -0.18276663731978       -1.35778513799015
H           -1.24351329679518        0.94846013192558        1.23476827888040
H           -1.15244835944401        1.72939114640948       -0.32480395344529
H            2.49604843029333       -0.77675769431493        0.53663874700394
H            3.15328528735928        0.82996926466227        0.07560901867328
H            2.45692578261179       -0.26385543528566       -1.16779221833292
