 xtb: 6.7.1 (41059b4)
          04092502303D

 20 20  0     0  0            999 V2000
    0.5992    1.7001   -0.0363 C   0  0  0  0  0  0  0  0  0  0  0  0
    1.3883    0.4089   -0.2724 C   0  0  0  0  0  0  0  0  0  0  0  0
    1.5817    0.2887   -1.3499 H   0  0  0  0  0  0  0  0  0  0  0  0
    0.5571   -0.7927    0.2047 C   0  0  0  0  0  0  0  0  0  0  0  0
    0.3960   -0.6944    1.2913 H   0  0  0  0  0  0  0  0  0  0  0  0
   -0.8060   -0.7781   -0.5054 C   0  0  0  0  0  0  0  0  0  0  0  0
   -0.6481   -0.9527   -1.5735 H   0  0  0  0  0  0  0  0  0  0  0  0
   -1.4657    0.6040   -0.3002 C   0  0  0  0  0  0  0  0  0  0  0  0
   -2.3576    0.6793   -0.9401 H   0  0  0  0  0  0  0  0  0  0  0  0
   -0.6474    1.6679   -0.7029 O   0  0  0  0  0  0  0  0  0  0  0  0
   -1.8149    0.6931    1.0535 O   0  0  0  0  0  0  0  0  0  0  0  0
   -1.6633   -1.7868   -0.0701 O   0  0  0  0  0  0  0  0  0  0  0  0
    1.2134   -1.9963   -0.0850 O   0  0  0  0  0  0  0  0  0  0  0  0
    2.5993    0.3883    0.4533 O   0  0  0  0  0  0  0  0  0  0  0  0
    1.1244    2.5673   -0.4432 H   0  0  0  0  0  0  0  0  0  0  0  0
    0.4570    1.8352    1.0448 H   0  0  0  0  0  0  0  0  0  0  0  0
   -2.2750    1.5267    1.2048 H   0  0  0  0  0  0  0  0  0  0  0  0
   -1.8396   -1.6429    0.8689 H   0  0  0  0  0  0  0  0  0  0  0  0
    2.1093   -1.9249    0.2674 H   0  0  0  0  0  0  0  0  0  0  0  0
    3.1561    1.1183    0.1632 H   0  0  0  0  0  0  0  0  0  0  0  0
  1  2  1  0  0  0  0
  2  3  1  0  0  0  0
  2  4  1  0  0  0  0
  4  5  1  0  0  0  0
  4  6  1  0  0  0  0
  6  7  1  0  0  0  0
  6  8  1  0  0  0  0
  8  9  1  0  0  0  0
  1 10  1  0  0  0  0
  8 10  1  0  0  0  0
  8 11  1  0  0  0  0
  6 12  1  0  0  0  0
  4 13  1  0  0  0  0
  2 14  1  0  0  0  0
  1 15  1  0  0  0  0
  1 16  1  0  0  0  0
 11 17  1  0  0  0  0
 12 18  1  0  0  0  0
 13 19  1  0  0  0  0
 14 20  1  0  0  0  0
M  END
