 xtb: 6.7.1 (41059b4)
          04092501373D

  8  7  0     0  0            999 V2000
    0.6966    0.5532    0.2081 C   0  0  0  0  0  0  0  0  0  0  0  0
   -0.5725   -0.1557   -0.3137 C   0  0  0  0  0  0  0  0  0  0  0  0
   -0.4885   -0.2864   -1.6492 F   0  0  0  0  0  0  0  0  0  0  0  0
   -2.0014    0.8222    0.0746 Cl  0  0  0  0  0  0  0  0  0  0  0  0
   -0.6887   -1.7620    0.4165 Cl  0  0  0  0  0  0  0  0  0  0  0  0
    0.7839    1.7881   -0.2981 F   0  0  0  0  0  0  0  0  0  0  0  0
    0.6377    0.6849    1.5367 F   0  0  0  0  0  0  0  0  0  0  0  0
    2.1481   -0.3672   -0.2350 Cl  0  0  0  0  0  0  0  0  0  0  0  0
  1  2  1  0  0  0  0
  2  3  1  0  0  0  0
  2  4  1  0  0  0  0
  2  5  1  0  0  0  0
  1  6  1  0  0  0  0
  1  7  1  0  0  0  0
  1  8  1  0  0  0  0
M  END
